%nproc=1
%mem=1GB
%chk=TMP_CALCS/scangeom_S02_020_050.chk
#p hf 3-21g
   scf=tight NoSymmetry guess=read
   opt=(tight,modredundant)

Geometry optimization at the 2D-PES

0 1
 C     +0.743523    +0.578359    +0.039580
 C     +1.429103    -0.534921    -0.039835
 H     +1.176998    +1.555795    +0.080195
 H     +2.498566    -0.505339    -0.041358
 H     +0.949670    -1.487474    -0.117573
 O     -0.650211    +0.700410    +0.044415
 O     -1.283442    -0.560264    +0.417671
 H     -0.803674    -0.805188    +1.232292

 2  1  6  7 F
 1  6  7  8 F

