%nproc=1
%mem=1GB
%chk=TMP_CALCS/scangeom_S02_330_020.chk
#p hf 3-21g
   scf=tight NoSymmetry guess=read
   opt=(tight,modredundant)

Geometry optimization at the 2D-PES

0 1
 C     +0.741607    +0.569263    +0.004247
 C     +1.457813    -0.528776    +0.024700
 H     +1.174049    +1.544492    +0.085198
 H     +2.522917    -0.458700    +0.095063
 H     +1.055870    -1.520719    -0.028648
 O     -0.646287    +0.700758    -0.037094
 O     -1.345563    -0.385792    -0.723221
 H     -0.718986    -1.128135    -0.727437

 2  1  6  7 F
 1  6  7  8 F

