%nproc=1
%mem=1GB
%chk=TMP_CALCS/scangeom_S02_040_040.chk
#p hf 3-21g
   scf=tight NoSymmetry guess=read
   opt=(tight,modredundant)

Geometry optimization at the 2D-PES

0 1
 C     +0.747265    +0.591891    +0.051472
 C     +1.418215    -0.530014    -0.031027
 H     +1.193088    +1.564498    +0.072042
 H     +2.488383    -0.520605    -0.040274
 H     +0.918202    -1.475327    -0.079200
 O     -0.654184    +0.698190    +0.038688
 O     -1.260270    -0.379993    +0.825206
 H     -0.664480    -0.447840    +1.595475

 2  1  6  7 F
 1  6  7  8 F

