%nproc=1
%mem=1GB
%chk=TMP_CALCS/scangeom_S02_220_140.chk
#p hf 3-21g
   scf=tight NoSymmetry guess=read
   opt=(tight,modredundant)

Geometry optimization at the 2D-PES

0 1
 C     +0.722194    +0.638124    +0.023180
 C     +1.367334    -0.499556    -0.024475
 H     +1.180612    +1.602286    +0.063654
 H     +2.436782    -0.522151    +0.018826
 H     +0.843643    -1.431968    -0.082794
 O     -0.681497    +0.664942    +0.058083
 O     -1.082425    +1.782767    -0.812015
 H     -1.852573    +1.382995    -1.250543

 2  1  6  7 F
 1  6  7  8 F

