%nproc=1
%mem=1GB
%chk=TMP_CALCS/scangeom_S02_110_120.chk
#p hf 3-21g
   scf=tight NoSymmetry guess=read
   opt=(tight,modredundant)

Geometry optimization at the 2D-PES

0 1
 C     +0.732622    +0.629145    +0.046308
 C     +1.372451    -0.510216    +0.002608
 H     +1.204368    +1.586769    +0.123787
 H     +2.442870    -0.539700    +0.001942
 H     +0.837676    -1.436365    -0.048961
 O     -0.673971    +0.669201    -0.023998
 O     -1.148356    +1.073183    +1.309218
 H     -1.625239    +1.893501    +1.092805

 2  1  6  7 F
 1  6  7  8 F

