%nproc=1
%mem=1GB
%chk=TMP_CALCS/scangeom_S02_060_240.chk
#p hf 3-21g
   scf=tight NoSymmetry guess=read
   opt=(tight,modredundant)

Geometry optimization at the 2D-PES

0 1
 C     +0.735834    +0.598972    +0.058744
 C     +1.402150    -0.523787    -0.023150
 H     +1.197412    +1.563119    +0.099150
 H     +2.472593    -0.519120    -0.030856
 H     +0.911663    -1.475380    -0.057442
 O     -0.669333    +0.693206    +0.024200
 O     -1.234093    -0.071640    +1.142652
 H     -1.777548    -0.719221    +0.662001

 2  1  6  7 F
 1  6  7  8 F

