%nproc=1
%mem=1GB
%chk=TMP_CALCS/scangeom_S02_050_030.chk
#p hf 3-21g
   scf=tight NoSymmetry guess=read
   opt=(tight,modredundant)

Geometry optimization at the 2D-PES

0 1
 C     +0.749659    +0.597573    +0.042962
 C     +1.416787    -0.529284    -0.027225
 H     +1.204747    +1.565589    +0.068058
 H     +2.487070    -0.527037    -0.028098
 H     +0.915185    -1.474347    -0.090211
 O     -0.651815    +0.689613    +0.030372
 O     -1.261353    -0.225740    +1.010440
 H     -0.590613    -0.288002    +1.717231

 2  1  6  7 F
 1  6  7  8 F

