%nproc=1
%mem=1GB
%chk=TMP_CALCS/scangeom_S02_190_070.chk
#p hf 3-21g
   scf=tight NoSymmetry guess=read
   opt=(tight,modredundant)

Geometry optimization at the 2D-PES

0 1
 C     +0.745416    +0.635826    +0.023166
 C     +1.377161    -0.509738    -0.011754
 H     +1.221208    +1.589970    +0.112770
 H     +2.446429    -0.538852    +0.023169
 H     +0.846078    -1.437813    -0.069554
 O     -0.658985    +0.683068    +0.032395
 O     -1.094653    +2.064109    -0.167179
 H     -0.861035    +2.238438    -1.097894

 2  1  6  7 F
 1  6  7  8 F

