%nproc=1
%mem=1GB
%chk=TMP_CALCS/scangeom_S02_240_070.chk
#p hf 3-21g
   scf=tight NoSymmetry guess=read
   opt=(tight,modredundant)

Geometry optimization at the 2D-PES

0 1
 C     +0.727038    +0.636442    +0.026438
 C     +1.371453    -0.502098    -0.023863
 H     +1.185334    +1.601241    +0.059581
 H     +2.441438    -0.526981    +0.007663
 H     +0.845208    -1.434478    -0.065100
 O     -0.681994    +0.659386    +0.051721
 O     -1.107012    +1.412183    -1.136438
 H     -0.872343    +0.795788    -1.854270

 2  1  6  7 F
 1  6  7  8 F

