%nproc=1
%mem=1GB
%chk=TMP_CALCS/scangeom_S02_050_280.chk
#p hf 3-21g
   scf=tight NoSymmetry guess=read
   opt=(tight,modredundant)

Geometry optimization at the 2D-PES

0 1
 C     +0.739958    +0.587630    +0.065259
 C     +1.417252    -0.528161    -0.029635
 H     +1.195163    +1.555396    +0.092054
 H     +2.487070    -0.507015    -0.049918
 H     +0.947655    -1.490366    -0.054090
 O     -0.661496    +0.699951    +0.039202
 O     -1.269721    -0.238142    +0.983320
 H     -1.242421    -1.072040    +0.482634

 2  1  6  7 F
 1  6  7  8 F

