%nproc=1
%mem=1GB
%chk=TMP_CALCS/scangeom_S02_000_080.chk
#p hf 3-21g
   scf=tight NoSymmetry guess=read
   opt=(tight,modredundant)

Geometry optimization at the 2D-PES

0 1
 C     +0.740956    +0.572667    +0.023289
 C     +1.433350    -0.535296    -0.051216
 H     +1.169060    +1.551105    +0.092961
 H     +2.502513    -0.494960    -0.044358
 H     +0.963296    -1.489312    -0.147985
 O     -0.650053    +0.705040    +0.044377
 O     -1.290639    -0.600450    -0.029856
 H     -1.218701    -0.905521    +0.892983

 2  1  6  7 F
 1  6  7  8 F

