%nproc=1
%mem=1GB
%chk=TMP_CALCS/scangeom_S02_010_250.chk
#p hf 3-21g
   scf=tight NoSymmetry guess=read
   opt=(tight,modredundant)

Geometry optimization at the 2D-PES

0 1
 C     +0.736385    +0.569750    +0.042838
 C     +1.425985    -0.537914    -0.051936
 H     +1.167311    +1.547863    +0.101092
 H     +2.495268    -0.497694    -0.064290
 H     +0.952320    -1.493846    -0.089721
 O     -0.652959    +0.707650    +0.049260
 O     -1.282044    -0.603192    +0.170261
 H     -1.663989    -0.695364    -0.719354

 2  1  6  7 F
 1  6  7  8 F

