%nproc=1
%mem=1GB
%chk=TMP_CALCS/scangeom_S02_020_210.chk
#p hf 3-21g
   scf=tight NoSymmetry guess=read
   opt=(tight,modredundant)

Geometry optimization at the 2D-PES

0 1
 C     +0.734183    +0.574011    +0.051605
 C     +1.418590    -0.536744    -0.045785
 H     +1.170208    +1.550568    +0.095527
 H     +2.488101    -0.502151    -0.062484
 H     +0.939928    -1.490766    -0.074971
 O     -0.654895    +0.710360    +0.049587
 O     -1.267565    -0.571640    +0.396330
 H     -2.099819    -0.492411    -0.099386

 2  1  6  7 F
 1  6  7  8 F

