%nproc=1
%mem=1GB
%chk=TMP_CALCS/scangeom_S02_000_130.chk
#p hf 3-21g
   scf=tight NoSymmetry guess=read
   opt=(tight,modredundant)

Geometry optimization at the 2D-PES

0 1
 C     +0.734733    +0.571294    +0.034082
 C     +1.424869    -0.536571    -0.053622
 H     +1.165520    +1.549471    +0.095505
 H     +2.494257    -0.494569    -0.060463
 H     +0.951253    -1.490527    -0.123883
 O     -0.652076    +0.710107    +0.052148
 O     -1.275941    -0.607589    -0.044314
 H     -1.897147    -0.544720    +0.700225

 2  1  6  7 F
 1  6  7  8 F

