%nproc=1
%mem=1GB
%chk=TMP_CALCS/scangeom_S02_120_020.chk
#p hf 3-21g
   scf=tight NoSymmetry guess=read
   opt=(tight,modredundant)

Geometry optimization at the 2D-PES

0 1
 C     +0.757493    +0.625426    +0.052212
 C     +1.386880    -0.520010    -0.000330
 H     +1.249704    +1.579005    +0.078757
 H     +2.456507    -0.558808    -0.032903
 H     +0.842107    -1.441224    -0.031965
 O     -0.646136    +0.685384    -0.012249
 O     -1.183924    +1.310279    +1.211392
 H     -0.430285    +1.802007    +1.587936

 2  1  6  7 F
 1  6  7  8 F

