%nproc=1
%mem=1GB
%chk=TMP_CALCS/scangeom_S02_250_020.chk
#p hf 3-21g
   scf=tight NoSymmetry guess=read
   opt=(tight,modredundant)

Geometry optimization at the 2D-PES

0 1
 C     +0.747050    +0.633495    +0.030011
 C     +1.389767    -0.506770    -0.007958
 H     +1.220130    +1.592988    +0.092566
 H     +2.459320    -0.536020    +0.039318
 H     +0.857075    -1.434491    -0.062117
 O     -0.661167    +0.664811    +0.038466
 O     -1.156009    +1.192016    -1.253518
 H     -0.408948    +1.071134    -1.868879

 2  1  6  7 F
 1  6  7  8 F

