%nproc=1
%mem=1GB
%chk=TMP_CALCS/scangeom_S02_070_020.chk
#p hf 3-21g
   scf=tight NoSymmetry guess=read
   opt=(tight,modredundant)

Geometry optimization at the 2D-PES

0 1
 C     +0.751061    +0.610866    +0.036287
 C     +1.402265    -0.525415    -0.018778
 H     +1.221816    +1.571466    +0.074129
 H     +2.472984    -0.542467    -0.013607
 H     +0.881770    -1.460518    -0.079214
 O     -0.657146    +0.681076    +0.009913
 O     -1.234019    +0.156934    +1.267205
 H     -0.495260    +0.202434    +1.902935

 2  1  6  7 F
 1  6  7  8 F

