%nproc=1
%mem=1GB
%chk=TMP_CALCS/scangeom_S02_110_090.chk
#p hf 3-21g
   scf=tight NoSymmetry guess=read
   opt=(tight,modredundant)

Geometry optimization at the 2D-PES

0 1
 C     +0.740156    +0.627181    +0.048896
 C     +1.377685    -0.513187    +0.001767
 H     +1.219997    +1.583496    +0.110972
 H     +2.448042    -0.545813    -0.005948
 H     +0.839645    -1.437673    -0.045652
 O     -0.667500    +0.675002    -0.019395
 O     -1.166578    +1.076259    +1.304132
 H     -1.193113    +2.047901    +1.229571

 2  1  6  7 F
 1  6  7  8 F

