%nproc=1
%mem=1GB
%chk=TMP_CALCS/scangeom_S02_070_120.chk
#p hf 3-21g
   scf=tight NoSymmetry guess=read
   opt=(tight,modredundant)

Geometry optimization at the 2D-PES

0 1
 C     +0.737507    +0.611843    +0.047815
 C     +1.387429    -0.520689    -0.014329
 H     +1.208538    +1.572245    +0.099679
 H     +2.458254    -0.537240    -0.006746
 H     +0.866317    -1.455068    -0.059314
 O     -0.672146    +0.686324    +0.002376
 O     -1.205236    +0.136158    +1.258352
 H     -1.687124    +0.908237    +1.603059

 2  1  6  7 F
 1  6  7  8 F

