%nproc=1
%mem=1GB
%chk=TMP_CALCS/scangeom_S02_160_170.chk
#p hf 3-21g
   scf=tight NoSymmetry guess=read
   opt=(tight,modredundant)

Geometry optimization at the 2D-PES

0 1
 C     +0.722007    +0.634034    +0.053556
 C     +1.367367    -0.503862    -0.002564
 H     +1.177805    +1.598557    +0.107375
 H     +2.437327    -0.516968    -0.015923
 H     +0.849090    -1.439886    -0.045377
 O     -0.674098    +0.671955    -0.003218
 O     -1.064500    +1.970976    +0.560559
 H     -2.006955    +1.964828    +0.325124

 2  1  6  7 F
 1  6  7  8 F

