%nproc=1
%mem=1GB
%chk=TMP_CALCS/scangeom_S02_140_120.chk
#p hf 3-21g
   scf=tight NoSymmetry guess=read
   opt=(tight,modredundant)

Geometry optimization at the 2D-PES

0 1
 C     +0.731459    +0.636227    +0.054329
 C     +1.369631    -0.504845    +0.001454
 H     +1.194116    +1.597183    +0.120216
 H     +2.439485    -0.529600    -0.021154
 H     +0.838927    -1.434037    -0.034047
 O     -0.668466    +0.674430    -0.016754
 O     -1.102552    +1.693218    +0.947297
 H     -1.562896    +2.305324    +0.348604

 2  1  6  7 F
 1  6  7  8 F

