%nproc=1
%mem=1GB
%chk=TMP_CALCS/scangeom_S02_190_000.chk
#p hf 3-21g
   scf=tight NoSymmetry guess=read
   opt=(tight,modredundant)

Geometry optimization at the 2D-PES

0 1
 C     +0.767040    +0.631227    +0.017484
 C     +1.386167    -0.521283    -0.008351
 H     +1.275970    +1.570732    +0.117033
 H     +2.453527    -0.566005    +0.054818
 H     +0.841301    -1.439679    -0.084367
 O     -0.631644    +0.696100    +0.037432
 O     -1.133384    +2.061158    -0.170919
 H     -0.340364    +2.617017    -0.277413

 2  1  6  7 F
 1  6  7  8 F

