%nproc=1
%mem=1GB
%chk=TMP_CALCS/scangeom_S02_320_030.chk
#p hf 3-21g
   scf=tight NoSymmetry guess=read
   opt=(tight,modredundant)

Geometry optimization at the 2D-PES

0 1
 C     +0.741039    +0.583657    +0.016680
 C     +1.442522    -0.524692    +0.016495
 H     +1.181893    +1.555822    +0.086979
 H     +2.510344    -0.478034    +0.061337
 H     +1.006500    -1.504528    -0.000108
 O     -0.652541    +0.692462    -0.020437
 O     -1.303598    -0.269278    -0.918112
 H     -0.721066    -1.048098    -0.915961

 2  1  6  7 F
 1  6  7  8 F

