%nproc=1
%mem=1GB
%chk=TMP_CALCS/scangeom_S02_200_070.chk
#p hf 3-21g
   scf=tight NoSymmetry guess=read
   opt=(tight,modredundant)

Geometry optimization at the 2D-PES

0 1
 C     +0.737262    +0.637962    +0.021141
 C     +1.373084    -0.505454    -0.017818
 H     +1.199990    +1.598567    +0.094752
 H     +2.442352    -0.531383    +0.022164
 H     +0.845760    -1.435769    -0.076338
 O     -0.667726    +0.677139    +0.046987
 O     -1.087286    +2.007283    -0.389295
 H     -0.857777    +1.994670    -1.336534

 2  1  6  7 F
 1  6  7  8 F

