%nproc=1
%mem=1GB
%chk=TMP_CALCS/scangeom_S02_170_000.chk
#p hf 3-21g
   scf=tight NoSymmetry guess=read
   opt=(tight,modredundant)

Geometry optimization at the 2D-PES

0 1
 C     +0.770046    +0.628220    +0.040137
 C     +1.385167    -0.525988    -0.003577
 H     +1.289878    +1.564861    +0.096224
 H     +2.454058    -0.570848    +0.015850
 H     +0.837761    -1.444248    -0.059322
 O     -0.627841    +0.700833    +0.015402
 O     -1.142755    +2.043099    +0.304597
 H     -0.356913    +2.599039    +0.453822

 2  1  6  7 F
 1  6  7  8 F

