%nproc=1
%mem=1GB
%chk=TMP_CALCS/scangeom_S02_070_030.chk
#p hf 3-21g
   scf=tight NoSymmetry guess=read
   opt=(tight,modredundant)

Geometry optimization at the 2D-PES

0 1
 C     +0.751129    +0.610874    +0.038394
 C     +1.401738    -0.524988    -0.018794
 H     +1.221463    +1.571981    +0.074116
 H     +2.472525    -0.542677    -0.015098
 H     +0.879617    -1.459265    -0.073667
 O     -0.657965    +0.683340    +0.009602
 O     -1.232618    +0.155636    +1.265168
 H     -0.550818    +0.349502    +1.935477

 2  1  6  7 F
 1  6  7  8 F

