%nproc=1
%mem=1GB
%chk=TMP_CALCS/scangeom_S02_260_090.chk
#p hf 3-21g
   scf=tight NoSymmetry guess=read
   opt=(tight,modredundant)

Geometry optimization at the 2D-PES

0 1
 C     +0.720691    +0.629605    +0.029995
 C     +1.371145    -0.504891    -0.022709
 H     +1.183335    +1.592763    +0.052947
 H     +2.441680    -0.524028    -0.006993
 H     +0.852916    -1.442508    -0.053216
 O     -0.690753    +0.660227    +0.047855
 O     -1.117951    +0.969422    -1.326911
 H     -1.192931    +0.072673    -1.697763

 2  1  6  7 F
 1  6  7  8 F

