%nproc=1
%mem=1GB
%chk=TMP_CALCS/scangeom_S02_250_070.chk
#p hf 3-21g
   scf=tight NoSymmetry guess=read
   opt=(tight,modredundant)

Geometry optimization at the 2D-PES

0 1
 C     +0.728709    +0.635084    +0.032632
 C     +1.375400    -0.502634    -0.020765
 H     +1.189036    +1.599676    +0.061985
 H     +2.445742    -0.526384    +0.001344
 H     +0.849507    -1.435885    -0.052343
 O     -0.681625    +0.654475    +0.049687
 O     -1.121524    +1.194774    -1.247347
 H     -0.888353    +0.474838    -1.863374

 2  1  6  7 F
 1  6  7  8 F

