%nproc=1
%mem=1GB
%chk=TMP_CALCS/scangeom_S02_200_160.chk
#p hf 3-21g
   scf=tight NoSymmetry guess=read
   opt=(tight,modredundant)

Geometry optimization at the 2D-PES

0 1
 C     +0.721274    +0.637931    +0.022471
 C     +1.366421    -0.500383    -0.020758
 H     +1.177592    +1.602323    +0.075131
 H     +2.435545    -0.518821    +0.025032
 H     +0.846386    -1.434233    -0.085802
 O     -0.677864    +0.667938    +0.056258
 O     -1.063029    +2.015973    -0.385211
 H     -1.983408    +1.842342    -0.643959

 2  1  6  7 F
 1  6  7  8 F

