%nproc=1
%mem=1GB
%chk=TMP_CALCS/scangeom_S02_040_070.chk
#p hf 3-21g
   scf=tight NoSymmetry guess=read
   opt=(tight,modredundant)

Geometry optimization at the 2D-PES

0 1
 C     +0.744951    +0.589884    +0.060319
 C     +1.414406    -0.530435    -0.031141
 H     +1.191924    +1.562526    +0.076485
 H     +2.484674    -0.519300    -0.049448
 H     +0.913901    -1.475425    -0.060966
 O     -0.658323    +0.703555    +0.042258
 O     -1.255836    -0.384570    +0.816155
 H     -1.007294    -0.139709    +1.725930

 2  1  6  7 F
 1  6  7  8 F

