%nproc=1
%mem=1GB
%chk=TMP_CALCS/scangeom_S02_220_080.chk
#p hf 3-21g
   scf=tight NoSymmetry guess=read
   opt=(tight,modredundant)

Geometry optimization at the 2D-PES

0 1
 C     +0.731271    +0.639198    +0.020287
 C     +1.370984    -0.502072    -0.022541
 H     +1.189660    +1.602818    +0.072630
 H     +2.440185    -0.528402    +0.023622
 H     +0.843791    -1.432708    -0.079731
 O     -0.674514    +0.669203    +0.052662
 O     -1.094856    +1.774762    -0.812573
 H     -1.021410    +1.369712    -1.695523

 2  1  6  7 F
 1  6  7  8 F

