%nproc=1
%mem=1GB
%chk=TMP_CALCS/scangeom_S02_050_210.chk
#p hf 3-21g
   scf=tight NoSymmetry guess=read
   opt=(tight,modredundant)

Geometry optimization at the 2D-PES

0 1
 C     +0.732681    +0.597296    +0.058950
 C     +1.394975    -0.527535    -0.025928
 H     +1.190803    +1.563656    +0.094701
 H     +2.465458    -0.525029    -0.032620
 H     +0.891692    -1.471324    -0.047483
 O     -0.665855    +0.704373    +0.023398
 O     -1.222585    -0.254476    +0.991623
 H     -2.066427    -0.445608    +0.547934

 2  1  6  7 F
 1  6  7  8 F

