%nproc=1
%mem=1GB
%chk=TMP_CALCS/scangeom_S02_230_070.chk
#p hf 3-21g
   scf=tight NoSymmetry guess=read
   opt=(tight,modredundant)

Geometry optimization at the 2D-PES

0 1
 C     +0.735498    +0.638335    +0.024348
 C     +1.375865    -0.502741    -0.019679
 H     +1.196754    +1.601776    +0.077404
 H     +2.445258    -0.531061    +0.024300
 H     +0.845706    -1.432042    -0.072628
 O     -0.671635    +0.663877    +0.050246
 O     -1.112741    +1.603178    -0.989682
 H     -0.889774    +1.130858    -1.813834

 2  1  6  7 F
 1  6  7  8 F

