%nproc=1
%mem=1GB
%chk=TMP_CALCS/scangeom_S02_150_040.chk
#p hf 3-21g
   scf=tight NoSymmetry guess=read
   opt=(tight,modredundant)

Geometry optimization at the 2D-PES

0 1
 C     +0.764574    +0.629771    +0.063984
 C     +1.383030    -0.521398    +0.003580
 H     +1.275080    +1.573655    +0.084847
 H     +2.451852    -0.565027    -0.031117
 H     +0.834271    -1.440185    -0.023924
 O     -0.632645    +0.702217    -0.015488
 O     -1.156465    +1.849190    +0.737124
 H     -0.526410    +2.571658    +0.559091

 2  1  6  7 F
 1  6  7  8 F

