%nproc=1
%mem=1GB
%chk=TMP_CALCS/scangeom_S02_090_190.chk
#p hf 3-21g
   scf=tight NoSymmetry guess=read
   opt=(tight,modredundant)

Geometry optimization at the 2D-PES

0 1
 C     +0.725751    +0.623319    +0.040906
 C     +1.370624    -0.513491    -0.002424
 H     +1.195145    +1.580823    +0.124159
 H     +2.441155    -0.537400    +0.015412
 H     +0.844366    -1.444272    -0.061607
 O     -0.679968    +0.671425    -0.023910
 O     -1.156396    +0.592489    +1.374591
 H     -2.105085    +0.466274    +1.201091

 2  1  6  7 F
 1  6  7  8 F

