%nproc=1
%mem=1GB
%chk=TMP_CALCS/scangeom_S02_010_040.chk
#p hf 3-21g
   scf=tight NoSymmetry guess=read
   opt=(tight,modredundant)

Geometry optimization at the 2D-PES

0 1
 C     +0.744774    +0.565525    +0.015614
 C     +1.453279    -0.536969    -0.048394
 H     +1.174645    +1.542822    +0.083345
 H     +2.520977    -0.478748    -0.027367
 H     +1.024940    -1.509306    -0.177689
 O     -0.638782    +0.695238    +0.041026
 O     -1.339151    -0.573352    +0.221070
 H     -0.798493    -1.050746    +0.878069

 2  1  6  7 F
 1  6  7  8 F

