%nproc=1
%mem=1GB
%chk=TMP_CALCS/scangeom_S02_120_120.chk
#p hf 3-21g
   scf=tight NoSymmetry guess=read
   opt=(tight,modredundant)

Geometry optimization at the 2D-PES

0 1
 C     +0.729090    +0.632923    +0.048365
 C     +1.370079    -0.506227    +0.003361
 H     +1.193648    +1.592808    +0.127327
 H     +2.440386    -0.532616    -0.005263
 H     +0.837809    -1.434051    -0.042855
 O     -0.674021    +0.667653    -0.025276
 O     -1.127692    +1.298173    +1.225415
 H     -1.597283    +2.069614    +0.865005

 2  1  6  7 F
 1  6  7  8 F

