%nproc=1
%mem=1GB
%chk=TMP_CALCS/scangeom_S02_210_030.chk
#p hf 3-21g
   scf=tight NoSymmetry guess=read
   opt=(tight,modredundant)

Geometry optimization at the 2D-PES

0 1
 C     +0.758762    +0.634859    +0.015144
 C     +1.385346    -0.513782    -0.010108
 H     +1.248262    +1.583522    +0.117382
 H     +2.452818    -0.553374    +0.057923
 H     +0.845352    -1.435393    -0.084473
 O     -0.642523    +0.685734    +0.039695
 O     -1.133609    +1.903375    -0.624168
 H     -0.465032    +2.106956    -1.303583

 2  1  6  7 F
 1  6  7  8 F

