%nproc=1
%mem=1GB
%chk=TMP_CALCS/scangeom_S02_140_190.chk
#p hf 3-21g
   scf=tight NoSymmetry guess=read
   opt=(tight,modredundant)

Geometry optimization at the 2D-PES

0 1
 C     +0.724768    +0.634248    +0.054590
 C     +1.368050    -0.504471    +0.003529
 H     +1.183154    +1.597305    +0.118689
 H     +2.438093    -0.523758    -0.015010
 H     +0.843749    -1.437134    -0.039926
 O     -0.673017    +0.670668    -0.020251
 O     -1.093583    +1.695135    +0.950535
 H     -2.051116    +1.529586    +0.946168

 2  1  6  7 F
 1  6  7  8 F

