%nproc=1
%mem=1GB
%chk=TMP_CALCS/scangeom_S02_030_020.chk
#p hf 3-21g
   scf=tight NoSymmetry guess=read
   opt=(tight,modredundant)

Geometry optimization at the 2D-PES

0 1
 C     +0.748392    +0.575351    +0.032632
 C     +1.444609    -0.534865    -0.040096
 H     +1.187656    +1.550069    +0.068557
 H     +2.513439    -0.494219    -0.038432
 H     +0.993931    -1.501942    -0.141523
 O     -0.640676    +0.690646    +0.047593
 O     -1.317452    -0.460672    +0.653610
 H     -0.628052    -0.891361    +1.192340

 2  1  6  7 F
 1  6  7  8 F

