%nproc=1
%mem=1GB
%chk=TMP_CALCS/scangeom_S02_070_240.chk
#p hf 3-21g
   scf=tight NoSymmetry guess=read
   opt=(tight,modredundant)

Geometry optimization at the 2D-PES

0 1
 C     +0.732204    +0.608918    +0.050712
 C     +1.387879    -0.520796    -0.015337
 H     +1.200205    +1.569151    +0.105609
 H     +2.458537    -0.530567    -0.010723
 H     +0.880091    -1.462880    -0.059336
 O     -0.674380    +0.687360    +0.005200
 O     -1.204924    +0.131552    +1.262190
 H     -1.741101    -0.596422    +0.904707

 2  1  6  7 F
 1  6  7  8 F

