%nproc=1
%mem=1GB
%chk=TMP_CALCS/scangeom_S02_130_220.chk
#p hf 3-21g
   scf=tight NoSymmetry guess=read
   opt=(tight,modredundant)

Geometry optimization at the 2D-PES

0 1
 C     +0.725780    +0.632646    +0.052742
 C     +1.367855    -0.506667    +0.005757
 H     +1.186752    +1.593959    +0.125607
 H     +2.438087    -0.529250    -0.006041
 H     +0.841147    -1.437706    -0.044338
 O     -0.674074    +0.669752    -0.025585
 O     -1.109831    +1.510522    +1.104368
 H     -1.890324    +1.003673    +1.384737

 2  1  6  7 F
 1  6  7  8 F

