%nproc=1
%mem=1GB
%chk=TMP_CALCS/scangeom_S02_050_080.chk
#p hf 3-21g
   scf=tight NoSymmetry guess=read
   opt=(tight,modredundant)

Geometry optimization at the 2D-PES

0 1
 C     +0.746237    +0.597648    +0.057028
 C     +1.407862    -0.528080    -0.025400
 H     +1.201485    +1.566454    +0.076636
 H     +2.478479    -0.528923    -0.036136
 H     +0.897820    -1.468691    -0.056853
 O     -0.661026    +0.699165    +0.030189
 O     -1.245253    -0.238610    +0.993558
 H     -1.140628    +0.240169    +1.836181

 2  1  6  7 F
 1  6  7  8 F

