%nproc=1
%mem=1GB
%chk=TMP_CALCS/scangeom_S02_010_080.chk
#p hf 3-21g
   scf=tight NoSymmetry guess=read
   opt=(tight,modredundant)

Geometry optimization at the 2D-PES

0 1
 C     +0.741504    +0.573203    +0.030382
 C     +1.431764    -0.537044    -0.044142
 H     +1.171605    +1.551381    +0.087497
 H     +2.500966    -0.500600    -0.037748
 H     +0.959978    -1.491344    -0.136882
 O     -0.650137    +0.701458    +0.041764
 O     -1.292106    -0.597414    +0.194389
 H     -1.217662    -0.753491    +1.155139

 2  1  6  7 F
 1  6  7  8 F

