%nproc=1
%mem=1GB
%chk=TMP_CALCS/scangeom_S02_000_270.chk
#p hf 3-21g
   scf=tight NoSymmetry guess=read
   opt=(tight,modredundant)

Geometry optimization at the 2D-PES

0 1
 C     +0.741478    +0.571194    +0.041232
 C     +1.434750    -0.534622    -0.060042
 H     +1.169691    +1.549774    +0.106369
 H     +2.503558    -0.491424    -0.079240
 H     +0.969101    -1.495534    -0.089614
 O     -0.649055    +0.702759    +0.055768
 O     -1.295171    -0.596578    -0.060464
 H     -1.386718    -0.691127    -1.027056

 2  1  6  7 F
 1  6  7  8 F

