%nproc=1
%mem=1GB
%chk=TMP_CALCS/scangeom_S02_020_320.chk
#p hf 3-21g
   scf=tight NoSymmetry guess=read
   opt=(tight,modredundant)

Geometry optimization at the 2D-PES

0 1
 C     +0.750245    +0.553914    +0.061257
 C     +1.475329    -0.533616    -0.043286
 H     +1.178866    +1.533606    +0.096478
 H     +2.541287    -0.448390    -0.068319
 H     +1.086115    -1.530600    -0.081331
 O     -0.633830    +0.694846    +0.056807
 O     -1.380591    -0.519892    +0.373386
 H     -0.905543    -1.235131    -0.081571

 2  1  6  7 F
 1  6  7  8 F

