%nproc=1
%mem=1GB
%chk=TMP_CALCS/scangeom_S02_030_300.chk
#p hf 3-21g
   scf=tight NoSymmetry guess=read
   opt=(tight,modredundant)

Geometry optimization at the 2D-PES

0 1
 C     +0.742513    +0.568458    +0.073363
 C     +1.439974    -0.534280    -0.040791
 H     +1.181506    +1.544112    +0.089823
 H     +2.507846    -0.483035    -0.080824
 H     +1.003232    -1.510999    -0.041898
 O     -0.648859    +0.703140    +0.060638
 O     -1.317666    -0.479540    +0.589813
 H     -1.020406    -1.185560    -0.012115

 2  1  6  7 F
 1  6  7  8 F

