%nproc=1
%mem=1GB
%chk=TMP_CALCS/scangeom_S02_170_140.chk
#p hf 3-21g
   scf=tight NoSymmetry guess=read
   opt=(tight,modredundant)

Geometry optimization at the 2D-PES

0 1
 C     +0.729567    +0.635665    +0.045407
 C     +1.369025    -0.505604    -0.006061
 H     +1.188266    +1.597919    +0.105978
 H     +2.438994    -0.523614    -0.003953
 H     +0.847062    -1.439442    -0.051896
 O     -0.670287    +0.677750    +0.004746
 O     -1.065766    +2.050597    +0.321863
 H     -1.795084    +2.165772    -0.310224

 2  1  6  7 F
 1  6  7  8 F

