%nproc=1
%mem=1GB
%chk=TMP_CALCS/scangeom_S02_060_050.chk
#p hf 3-21g
   scf=tight NoSymmetry guess=read
   opt=(tight,modredundant)

Geometry optimization at the 2D-PES

0 1
 C     +0.747454    +0.605536    +0.050795
 C     +1.403643    -0.524104    -0.022056
 H     +1.209338    +1.571207    +0.077963
 H     +2.474467    -0.533910    -0.026269
 H     +0.886544    -1.461175    -0.059493
 O     -0.662935    +0.692160    +0.019860
 O     -1.231734    -0.060824    +1.146041
 H     -0.723848    +0.275585    +1.907381

 2  1  6  7 F
 1  6  7  8 F

