%nproc=1
%mem=1GB
%chk=TMP_CALCS/scangeom_S02_230_020.chk
#p hf 3-21g
   scf=tight NoSymmetry guess=read
   opt=(tight,modredundant)

Geometry optimization at the 2D-PES

0 1
 C     +0.755172    +0.635006    +0.020655
 C     +1.388363    -0.510044    -0.009279
 H     +1.236668    +1.589372    +0.107933
 H     +2.456183    -0.547455    +0.059676
 H     +0.849731    -1.432760    -0.081130
 O     -0.648786    +0.675932    +0.040040
 O     -1.148130    +1.600770    -0.997488
 H     -0.410471    +1.692641    -1.628364

 2  1  6  7 F
 1  6  7  8 F

