%nproc=1
%mem=1GB
%chk=TMP_CALCS/scangeom_S02_030_210.chk
#p hf 3-21g
   scf=tight NoSymmetry guess=read
   opt=(tight,modredundant)

Geometry optimization at the 2D-PES

0 1
 C     +0.732289    +0.580355    +0.057701
 C     +1.408910    -0.535410    -0.037677
 H     +1.175790    +1.553865    +0.092121
 H     +2.478841    -0.510952    -0.052397
 H     +0.921957    -1.486069    -0.062289
 O     -0.658291    +0.710775    +0.042737
 O     -1.251206    -0.504621    +0.610287
 H     -2.086704    -0.513280    +0.113795

 2  1  6  7 F
 1  6  7  8 F

