%nproc=1
%mem=1GB
%chk=TMP_CALCS/scangeom_S02_140_200.chk
#p hf 3-21g
   scf=tight NoSymmetry guess=read
   opt=(tight,modredundant)

Geometry optimization at the 2D-PES

0 1
 C     +0.725731    +0.634356    +0.054672
 C     +1.368531    -0.504665    +0.003632
 H     +1.184729    +1.597082    +0.117775
 H     +2.438576    -0.524404    -0.015212
 H     +0.844030    -1.437236    -0.040486
 O     -0.672791    +0.671035    -0.019265
 O     -1.095501    +1.695034    +0.950193
 H     -2.020911    +1.424714    +1.072513

 2  1  6  7 F
 1  6  7  8 F

