%nproc=1
%mem=1GB
%chk=TMP_CALCS/scangeom_S02_060_040.chk
#p hf 3-21g
   scf=tight NoSymmetry guess=read
   opt=(tight,modredundant)

Geometry optimization at the 2D-PES

0 1
 C     +0.748632    +0.605677    +0.048645
 C     +1.405271    -0.524383    -0.022607
 H     +1.210140    +1.571402    +0.075427
 H     +2.476066    -0.534188    -0.025865
 H     +0.888373    -1.461621    -0.063204
 O     -0.661118    +0.691030    +0.019991
 O     -1.234203    -0.058725    +1.148247
 H     -0.626960    +0.149597    +1.882522

 2  1  6  7 F
 1  6  7  8 F

