%nproc=1
%mem=1GB
%chk=TMP_CALCS/scangeom_S02_200_110.chk
#p hf 3-21g
   scf=tight NoSymmetry guess=read
   opt=(tight,modredundant)

Geometry optimization at the 2D-PES

0 1
 C     +0.727487    +0.638067    +0.024488
 C     +1.368500    -0.502649    -0.019408
 H     +1.184882    +1.601133    +0.083510
 H     +2.437881    -0.522556    +0.018747
 H     +0.847051    -1.436137    -0.079356
 O     -0.674455    +0.673046    +0.049353
 O     -1.073555    +2.013210    -0.384602
 H     -1.458374    +1.809619    -1.254137

 2  1  6  7 F
 1  6  7  8 F

