%nproc=1
%mem=1GB
%chk=TMP_CALCS/scangeom_S02_110_150.chk
#p hf 3-21g
   scf=tight NoSymmetry guess=read
   opt=(tight,modredundant)

Geometry optimization at the 2D-PES

0 1
 C     +0.727016    +0.629719    +0.044335
 C     +1.368788    -0.508973    +0.003351
 H     +1.192568    +1.588638    +0.130934
 H     +2.439244    -0.535749    +0.007164
 H     +0.837019    -1.436706    -0.050946
 O     -0.677284    +0.665908    -0.028796
 O     -1.135436    +1.072531    +1.313043
 H     -1.955804    +1.535684    +1.072223

 2  1  6  7 F
 1  6  7  8 F

