%nproc=1
%mem=1GB
%chk=TMP_CALCS/scangeom_S02_010_190.chk
#p hf 3-21g
   scf=tight NoSymmetry guess=read
   opt=(tight,modredundant)

Geometry optimization at the 2D-PES

0 1
 C     +0.731033    +0.572033    +0.041716
 C     +1.417002    -0.538367    -0.048741
 H     +1.165831    +1.548821    +0.096105
 H     +2.486590    -0.500400    -0.056600
 H     +0.940939    -1.492537    -0.101680
 O     -0.653799    +0.712079    +0.048129
 O     -1.266609    -0.611150    +0.175984
 H     -2.189626    -0.365178    -0.000919

 2  1  6  7 F
 1  6  7  8 F

