%nproc=1
%mem=1GB
%chk=TMP_CALCS/scangeom_S02_130_200.chk
#p hf 3-21g
   scf=tight NoSymmetry guess=read
   opt=(tight,modredundant)

Geometry optimization at the 2D-PES

0 1
 C     +0.724700    +0.632760    +0.052490
 C     +1.367023    -0.506326    +0.005535
 H     +1.184653    +1.594561    +0.127422
 H     +2.437242    -0.528711    -0.006146
 H     +0.839884    -1.437105    -0.042634
 O     -0.674012    +0.669299    -0.027166
 O     -1.106964    +1.510323    +1.104622
 H     -2.030420    +1.214479    +1.170043

 2  1  6  7 F
 1  6  7  8 F

