%nproc=1
%mem=1GB
%chk=TMP_CALCS/scangeom_S02_050_270.chk
#p hf 3-21g
   scf=tight NoSymmetry guess=read
   opt=(tight,modredundant)

Geometry optimization at the 2D-PES

0 1
 C     +0.738823    +0.589071    +0.065519
 C     +1.413231    -0.528161    -0.029334
 H     +1.193887    +1.556931    +0.091986
 H     +2.483167    -0.510881    -0.049498
 H     +0.936492    -1.486678    -0.048571
 O     -0.662455    +0.700775    +0.037878
 O     -1.261457    -0.242054    +0.984260
 H     -1.379070    -1.027953    +0.422926

 2  1  6  7 F
 1  6  7  8 F

