%nproc=1
%mem=1GB
%chk=TMP_CALCS/scangeom_S02_100_160.chk
#p hf 3-21g
   scf=tight NoSymmetry guess=read
   opt=(tight,modredundant)

Geometry optimization at the 2D-PES

0 1
 C     +0.724300    +0.627501    +0.041843
 C     +1.369309    -0.509402    +0.000858
 H     +1.189885    +1.586214    +0.130396
 H     +2.439871    -0.533253    +0.013484
 H     +0.841819    -1.439382    -0.058650
 O     -0.680484    +0.665838    -0.027540
 O     -1.142858    +0.832426    +1.367265
 H     -2.036411    +1.173089    +1.190393

 2  1  6  7 F
 1  6  7  8 F

