%nproc=1
%mem=1GB
%chk=TMP_CALCS/scangeom_S02_020_160.chk
#p hf 3-21g
   scf=tight NoSymmetry guess=read
   opt=(tight,modredundant)

Geometry optimization at the 2D-PES

0 1
 C     +0.731890    +0.575833    +0.052764
 C     +1.413834    -0.536575    -0.042930
 H     +1.170264    +1.551781    +0.091190
 H     +2.483571    -0.503840    -0.057178
 H     +0.933456    -1.489754    -0.082052
 O     -0.655129    +0.712143    +0.049497
 O     -1.259557    -0.576019    +0.398811
 H     -2.135253    -0.259327    +0.676132

 2  1  6  7 F
 1  6  7  8 F

