%nproc=1
%mem=1GB
%chk=TMP_CALCS/scangeom_S02_010_340.chk
#p hf 3-21g
   scf=tight NoSymmetry guess=read
   opt=(tight,modredundant)

Geometry optimization at the 2D-PES

0 1
 C     +0.749310    +0.553176    +0.059824
 C     +1.474575    -0.534280    -0.047799
 H     +1.175490    +1.533644    +0.102439
 H     +2.540302    -0.448076    -0.076051
 H     +1.084484    -1.531025    -0.065485
 O     -0.632376    +0.696421    +0.056161
 O     -1.378621    -0.554751    +0.141741
 H     -0.748031    -1.240501    -0.137992

 2  1  6  7 F
 1  6  7  8 F

