%nproc=1
%mem=1GB
%chk=TMP_CALCS/scangeom_S02_300_040.chk
#p hf 3-21g
   scf=tight NoSymmetry guess=read
   opt=(tight,modredundant)

Geometry optimization at the 2D-PES

0 1
 C     +0.734698    +0.604606    +0.022433
 C     +1.408853    -0.518908    +0.004217
 H     +1.195813    +1.568048    +0.079666
 H     +2.478515    -0.507167    +0.036903
 H     +0.934503    -1.481075    -0.020156
 O     -0.671593    +0.687741    +0.002598
 O     -1.228281    +0.066970    -1.207441
 H     -0.681114    -0.728476    -1.328203

 2  1  6  7 F
 1  6  7  8 F

