%nproc=1
%mem=1GB
%chk=TMP_CALCS/scangeom_S02_210_000.chk
#p hf 3-21g
   scf=tight NoSymmetry guess=read
   opt=(tight,modredundant)

Geometry optimization at the 2D-PES

0 1
 C     +0.761543    +0.633387    +0.015204
 C     +1.387804    -0.515252    -0.009495
 H     +1.254543    +1.581477    +0.114909
 H     +2.454679    -0.557946    +0.067462
 H     +0.845191    -1.434846    -0.088781
 O     -0.639692    +0.686315    +0.040014
 O     -1.138712    +1.904373    -0.624170
 H     -0.341555    +2.379631    -0.921908

 2  1  6  7 F
 1  6  7  8 F

