%nproc=1
%mem=1GB
%chk=TMP_CALCS/scangeom_S02_100_020.chk
#p hf 3-21g
   scf=tight NoSymmetry guess=read
   opt=(tight,modredundant)

Geometry optimization at the 2D-PES

0 1
 C     +0.752514    +0.621398    +0.041461
 C     +1.390015    -0.520213    -0.006266
 H     +1.235265    +1.578291    +0.081400
 H     +2.460587    -0.552839    -0.017397
 H     +0.851898    -1.445096    -0.051323
 O     -0.656471    +0.677775    -0.009088
 O     -1.199300    +0.852208    +1.354643
 H     -0.449073    +1.201688    +1.870940

 2  1  6  7 F
 1  6  7  8 F

