%nproc=1
%mem=1GB
%chk=TMP_CALCS/scangeom_S02_020_250.chk
#p hf 3-21g
   scf=tight NoSymmetry guess=read
   opt=(tight,modredundant)

Geometry optimization at the 2D-PES

0 1
 C     +0.739025    +0.571378    +0.060398
 C     +1.428000    -0.535872    -0.047919
 H     +1.172557    +1.549203    +0.095026
 H     +2.496826    -0.496530    -0.077834
 H     +0.960991    -1.496709    -0.057104
 O     -0.652304    +0.706033    +0.057615
 O     -1.288012    -0.563936    +0.385643
 H     -1.684270    -0.805985    -0.470387

 2  1  6  7 F
 1  6  7  8 F

