%nproc=1
%mem=1GB
%chk=TMP_CALCS/scangeom_S02_050_150.chk
#p hf 3-21g
   scf=tight NoSymmetry guess=read
   opt=(tight,modredundant)

Geometry optimization at the 2D-PES

0 1
 C     +0.734906    +0.596801    +0.058868
 C     +1.397314    -0.527623    -0.024842
 H     +1.193773    +1.563623    +0.090664
 H     +2.467979    -0.524436    -0.030225
 H     +0.893471    -1.471247    -0.054506
 O     -0.665552    +0.701723    +0.025729
 O     -1.228674    -0.251771    +0.993679
 H     -2.039041    +0.228421    +1.235105

 2  1  6  7 F
 1  6  7  8 F

