%nproc=1
%mem=1GB
%chk=TMP_CALCS/scangeom_S02_140_140.chk
#p hf 3-21g
   scf=tight NoSymmetry guess=read
   opt=(tight,modredundant)

Geometry optimization at the 2D-PES

0 1
 C     +0.727463    +0.635477    +0.054137
 C     +1.368298    -0.504368    +0.002092
 H     +1.186138    +1.598140    +0.121028
 H     +2.438238    -0.526161    -0.018643
 H     +0.840632    -1.435212    -0.035779
 O     -0.670715    +0.672092    -0.019110
 O     -1.095938    +1.693921    +0.949133
 H     -1.809398    +2.110436    +0.437488

 2  1  6  7 F
 1  6  7  8 F

