%nproc=1
%mem=1GB
%chk=TMP_CALCS/scangeom_S02_300_000.chk
#p hf 3-21g
   scf=tight NoSymmetry guess=read
   opt=(tight,modredundant)

Geometry optimization at the 2D-PES

0 1
 C     +0.739631    +0.611177    +0.027223
 C     +1.409941    -0.516363    +0.003625
 H     +1.197414    +1.576336    +0.086362
 H     +2.480044    -0.512761    +0.026694
 H     +0.914975    -1.467944    -0.014210
 O     -0.664708    +0.679989    +0.008507
 O     -1.226942    +0.057513    -1.206542
 H     -0.442969    -0.251165    -1.698163

 2  1  6  7 F
 1  6  7  8 F

