%nproc=1
%mem=1GB
%chk=TMP_CALCS/scangeom_S02_030_090.chk
#p hf 3-21g
   scf=tight NoSymmetry guess=read
   opt=(tight,modredundant)

Geometry optimization at the 2D-PES

0 1
 C     +0.743289    +0.581511    +0.056540
 C     +1.420327    -0.534539    -0.034494
 H     +1.182600    +1.557387    +0.078331
 H     +2.490260    -0.513366    -0.050738
 H     +0.928168    -1.482800    -0.075470
 O     -0.655937    +0.703262    +0.046242
 O     -1.269202    -0.493180    +0.616657
 H     -1.323848    -0.256344    +1.560490

 2  1  6  7 F
 1  6  7  8 F

