%nproc=1
%mem=1GB
%chk=TMP_CALCS/scangeom_S02_150_010.chk
#p hf 3-21g
   scf=tight NoSymmetry guess=read
   opt=(tight,modredundant)

Geometry optimization at the 2D-PES

0 1
 C     +0.768915    +0.628699    +0.065158
 C     +1.384549    -0.524325    +0.004540
 H     +1.277943    +1.573564    +0.074129
 H     +2.453401    -0.570304    -0.027463
 H     +0.833718    -1.441805    -0.027807
 O     -0.627953    +0.702266    -0.015126
 O     -1.159259    +1.850136    +0.737265
 H     -0.380431    +2.381831    +0.982789

 2  1  6  7 F
 1  6  7  8 F

