%nproc=1
%mem=1GB
%chk=TMP_CALCS/scangeom_S02_110_060.chk
#p hf 3-21g
   scf=tight NoSymmetry guess=read
   opt=(tight,modredundant)

Geometry optimization at the 2D-PES

0 1
 C     +0.748976    +0.624299    +0.049392
 C     +1.383692    -0.517916    +0.000152
 H     +1.235252    +1.579682    +0.094179
 H     +2.453937    -0.553304    -0.015819
 H     +0.842699    -1.440973    -0.042267
 O     -0.657835    +0.680730    -0.015157
 O     -1.184944    +1.083196    +1.300493
 H     -0.783895    +1.959659    +1.452205

 2  1  6  7 F
 1  6  7  8 F

