%nproc=1
%mem=1GB
%chk=TMP_CALCS/scangeom_S02_170_050.chk
#p hf 3-21g
   scf=tight NoSymmetry guess=read
   opt=(tight,modredundant)

Geometry optimization at the 2D-PES

0 1
 C     +0.759610    +0.632187    +0.045811
 C     +1.381111    -0.518252    -0.001683
 H     +1.265167    +1.575157    +0.106217
 H     +2.450513    -0.556829    -0.002678
 H     +0.838799    -1.440381    -0.043443
 O     -0.640665    +0.696683    -0.000696
 O     -1.124616    +2.044756    +0.300918
 H     -0.600552    +2.624632    -0.281847

 2  1  6  7 F
 1  6  7  8 F

