%nproc=1
%mem=1GB
%chk=TMP_CALCS/scangeom_S02_180_090.chk
#p hf 3-21g
   scf=tight NoSymmetry guess=read
   opt=(tight,modredundant)

Geometry optimization at the 2D-PES

0 1
 C     +0.734813    +0.636514    +0.035837
 C     +1.371417    -0.506156    -0.012567
 H     +1.197340    +1.596726    +0.105461
 H     +2.441314    -0.527565    +0.000127
 H     +0.846979    -1.438519    -0.061591
 O     -0.669114    +0.679342    +0.028581
 O     -1.073868    +2.080643    +0.090412
 H     -1.120024    +2.306050    -0.855519

 2  1  6  7 F
 1  6  7  8 F

