%nproc=1
%mem=1GB
%chk=TMP_CALCS/scangeom_S02_180_100.chk
#p hf 3-21g
   scf=tight NoSymmetry guess=read
   opt=(tight,modredundant)

Geometry optimization at the 2D-PES

0 1
 C     +0.732085    +0.636410    +0.037074
 C     +1.370338    -0.505444    -0.012640
 H     +1.192066    +1.597833    +0.102837
 H     +2.440258    -0.524882    -0.000285
 H     +0.847778    -1.438837    -0.062031
 O     -0.670852    +0.677841    +0.028149
 O     -1.070097    +2.081509    +0.092259
 H     -1.272139    +2.256057    -0.843288

 2  1  6  7 F
 1  6  7  8 F

