%nproc=1
%mem=1GB
%chk=TMP_CALCS/scangeom_S02_270_030.chk
#p hf 3-21g
   scf=tight NoSymmetry guess=read
   opt=(tight,modredundant)

Geometry optimization at the 2D-PES

0 1
 C     +0.738594    +0.629354    +0.035465
 C     +1.390690    -0.506870    -0.007856
 H     +1.205940    +1.591362    +0.077261
 H     +2.461308    -0.525776    +0.013122
 H     +0.868225    -1.442386    -0.036867
 O     -0.671970    +0.659422    +0.034359
 O     -1.165756    +0.724431    -1.359838
 H     -0.479741    +0.255478    -1.871392

 2  1  6  7 F
 1  6  7  8 F

