%nproc=1
%mem=1GB
%chk=TMP_CALCS/scangeom_S02_210_070.chk
#p hf 3-21g
   scf=tight NoSymmetry guess=read
   opt=(tight,modredundant)

Geometry optimization at the 2D-PES

0 1
 C     +0.741370    +0.638155    +0.018677
 C     +1.376545    -0.505724    -0.016792
 H     +1.207589    +1.597862    +0.096708
 H     +2.445355    -0.535415    +0.034151
 H     +0.845681    -1.433771    -0.079421
 O     -0.663534    +0.675002    +0.046781
 O     -1.102755    +1.905566    -0.615898
 H     -0.885663    +1.740441    -1.552463

 2  1  6  7 F
 1  6  7  8 F

