%nproc=1
%mem=1GB
%chk=TMP_CALCS/scangeom_S02_310_030.chk
#p hf 3-21g
   scf=tight NoSymmetry guess=read
   opt=(tight,modredundant)

Geometry optimization at the 2D-PES

0 1
 C     +0.738538    +0.593262    +0.015004
 C     +1.427168    -0.522054    +0.011516
 H     +1.190330    +1.560451    +0.084083
 H     +2.495740    -0.491008    +0.057334
 H     +0.976160    -1.494998    -0.017700
 O     -0.661837    +0.693568    -0.013356
 O     -1.269614    -0.116079    -1.076374
 H     -0.660440    -0.866209    -1.184935

 2  1  6  7 F
 1  6  7  8 F

