%nproc=1
%mem=1GB
%chk=TMP_CALCS/scangeom_S02_010_010.chk
#p hf 3-21g
   scf=tight NoSymmetry guess=read
   opt=(tight,modredundant)

Geometry optimization at the 2D-PES

0 1
 C     +0.753201    +0.553147    +0.026752
 C     +1.482876    -0.533602    -0.058790
 H     +1.178319    +1.533632    +0.077313
 H     +2.548659    -0.444594    -0.068875
 H     +1.098235    -1.529897    -0.141662
 O     -0.627359    +0.693068    +0.061295
 O     -1.390337    -0.543368    +0.222008
 H     -0.736456    -1.228976    +0.435855

 2  1  6  7 F
 1  6  7  8 F

