%nproc=1
%mem=1GB
%chk=TMP_CALCS/scangeom_S02_200_040.chk
#p hf 3-21g
   scf=tight NoSymmetry guess=read
   opt=(tight,modredundant)

Geometry optimization at the 2D-PES

0 1
 C     +0.747572    +0.636250    +0.017965
 C     +1.378159    -0.510078    -0.014639
 H     +1.224610    +1.590356    +0.108413
 H     +2.447026    -0.542360    +0.030467
 H     +0.844373    -1.436403    -0.075921
 O     -0.656024    +0.682324    +0.044538
 O     -1.105361    +2.005022    -0.395920
 H     -0.502579    +2.219411    -1.132120

 2  1  6  7 F
 1  6  7  8 F

