%nproc=1
%mem=1GB
%chk=TMP_CALCS/scangeom_S02_250_040.chk
#p hf 3-21g
   scf=tight NoSymmetry guess=read
   opt=(tight,modredundant)

Geometry optimization at the 2D-PES

0 1
 C     +0.739887    +0.634869    +0.031691
 C     +1.384084    -0.504772    -0.012987
 H     +1.207622    +1.596661    +0.079556
 H     +2.454092    -0.531833    +0.022424
 H     +0.853527    -1.434557    -0.056238
 O     -0.669000    +0.658757    +0.042811
 O     -1.143147    +1.191435    -1.251654
 H     -0.541028    +0.785333    -1.903513

 2  1  6  7 F
 1  6  7  8 F

