%nproc=1
%mem=1GB
%chk=TMP_CALCS/scangeom_S02_030_260.chk
#p hf 3-21g
   scf=tight NoSymmetry guess=read
   opt=(tight,modredundant)

Geometry optimization at the 2D-PES

0 1
 C     +0.737907    +0.575862    +0.065864
 C     +1.421216    -0.534876    -0.040609
 H     +1.177386    +1.551231    +0.091765
 H     +2.490424    -0.503376    -0.069892
 H     +0.947900    -1.493178    -0.045757
 O     -0.655548    +0.706422    +0.052247
 O     -1.276764    -0.496367    +0.599833
 H     -1.532168    -0.959734    -0.216889

 2  1  6  7 F
 1  6  7  8 F

