%nproc=1
%mem=1GB
%chk=TMP_CALCS/scangeom_S02_090_030.chk
#p hf 3-21g
   scf=tight NoSymmetry guess=read
   opt=(tight,modredundant)

Geometry optimization at the 2D-PES

0 1
 C     +0.752484    +0.618558    +0.037682
 C     +1.392241    -0.522740    -0.009682
 H     +1.232537    +1.575750    +0.080502
 H     +2.462996    -0.552765    -0.010785
 H     +0.857484    -1.449538    -0.061742
 O     -0.657676    +0.677763    -0.005549
 O     -1.211130    +0.615712    +1.365858
 H     -0.524499    +1.027661    +1.922725

 2  1  6  7 F
 1  6  7  8 F

