%nproc=1
%mem=1GB
%chk=TMP_CALCS/scangeom_S02_130_180.chk
#p hf 3-21g
   scf=tight NoSymmetry guess=read
   opt=(tight,modredundant)

Geometry optimization at the 2D-PES

0 1
 C     +0.725196    +0.633186    +0.052162
 C     +1.366951    -0.506135    +0.005065
 H     +1.184591    +1.595129    +0.128583
 H     +2.437139    -0.529187    -0.007192
 H     +0.838601    -1.436258    -0.040906
 O     -0.673417    +0.669163    -0.027344
 O     -1.106717    +1.509594    +1.103845
 H     -2.067665    +1.472664    +0.963295

 2  1  6  7 F
 1  6  7  8 F

