%nproc=1
%mem=1GB
%chk=TMP_CALCS/scangeom_S02_310_000.chk
#p hf 3-21g
   scf=tight NoSymmetry guess=read
   opt=(tight,modredundant)

Geometry optimization at the 2D-PES

0 1
 C     +0.739737    +0.599994    +0.022402
 C     +1.423063    -0.520101    +0.007312
 H     +1.189056    +1.568720    +0.086182
 H     +2.492523    -0.499756    +0.035135
 H     +0.949231    -1.482573    -0.003406
 O     -0.659662    +0.684563    -0.002966
 O     -1.258565    -0.126321    -1.076969
 H     -0.495336    -0.538155    -1.522127

 2  1  6  7 F
 1  6  7  8 F

