%nproc=1
%mem=1GB
%chk=TMP_CALCS/scangeom_S02_240_020.chk
#p hf 3-21g
   scf=tight NoSymmetry guess=read
   opt=(tight,modredundant)

Geometry optimization at the 2D-PES

0 1
 C     +0.743914    +0.635375    +0.026215
 C     +1.382979    -0.506840    -0.013474
 H     +1.214462    +1.595539    +0.085814
 H     +2.452295    -0.538551    +0.033945
 H     +0.848559    -1.433607    -0.066956
 O     -0.663217    +0.664013    +0.042518
 O     -1.137552    +1.406735    -1.142097
 H     -0.378143    +1.382418    -1.754266

 2  1  6  7 F
 1  6  7  8 F

