%nproc=1
%mem=1GB
%chk=TMP_CALCS/scangeom_S02_020_110.chk
#p hf 3-21g
   scf=tight NoSymmetry guess=read
   opt=(tight,modredundant)

Geometry optimization at the 2D-PES

0 1
 C     +0.737832    +0.574077    +0.056510
 C     +1.421701    -0.536555    -0.042051
 H     +1.173166    +1.551865    +0.085158
 H     +2.491267    -0.502478    -0.063138
 H     +0.940642    -1.489385    -0.081926
 O     -0.654326    +0.708718    +0.054657
 O     -1.273478    -0.568867    +0.398968
 H     -1.621128    -0.356027    +1.281648

 2  1  6  7 F
 1  6  7  8 F

