%nproc=1
%mem=1GB
%chk=TMP_CALCS/scangeom_S02_180_040.chk
#p hf 3-21g
   scf=tight NoSymmetry guess=read
   opt=(tight,modredundant)

Geometry optimization at the 2D-PES

0 1
 C     +0.751981    +0.633541    +0.032974
 C     +1.378902    -0.514286    -0.009128
 H     +1.242806    +1.581564    +0.114855
 H     +2.448437    -0.547334    +0.005069
 H     +0.842759    -1.439821    -0.057899
 O     -0.651101    +0.688623    +0.025576
 O     -1.106046    +2.077394    +0.078598
 H     -0.484192    +2.547112    -0.507586

 2  1  6  7 F
 1  6  7  8 F

