%nproc=1
%mem=1GB
%chk=TMP_CALCS/scangeom_S02_110_190.chk
#p hf 3-21g
   scf=tight NoSymmetry guess=read
   opt=(tight,modredundant)

Geometry optimization at the 2D-PES

0 1
 C     +0.724333    +0.629230    +0.044951
 C     +1.367372    -0.509064    +0.003889
 H     +1.188494    +1.588470    +0.131901
 H     +2.437874    -0.533903    +0.008372
 H     +0.838669    -1.438512    -0.052676
 O     -0.678475    +0.666233    -0.029512
 O     -1.131843    +1.073311    +1.317334
 H     -2.084226    +0.908719    +1.211355

 2  1  6  7 F
 1  6  7  8 F

