%nproc=1
%mem=1GB
%chk=TMP_CALCS/scangeom_S02_170_020.chk
#p hf 3-21g
   scf=tight NoSymmetry guess=read
   opt=(tight,modredundant)

Geometry optimization at the 2D-PES

0 1
 C     +0.770000    +0.628851    +0.051315
 C     +1.384723    -0.525255    +0.001429
 H     +1.289685    +1.566620    +0.089639
 H     +2.453822    -0.570202    +0.000903
 H     +0.836242    -1.443493    -0.043149
 O     -0.626867    +0.703946    -0.006136
 O     -1.141966    +2.043680    +0.295847
 H     -0.391878    +2.649107    +0.154622

 2  1  6  7 F
 1  6  7  8 F

