%nproc=1
%mem=1GB
%chk=TMP_CALCS/scangeom_S02_030_080.chk
#p hf 3-21g
   scf=tight NoSymmetry guess=read
   opt=(tight,modredundant)

Geometry optimization at the 2D-PES

0 1
 C     +0.744005    +0.582429    +0.053396
 C     +1.421249    -0.534294    -0.034087
 H     +1.182984    +1.558235    +0.077337
 H     +2.491172    -0.514174    -0.046554
 H     +0.928950    -1.482428    -0.081805
 O     -0.654992    +0.701538    +0.044353
 O     -1.270032    -0.492100    +0.619832
 H     -1.177781    -0.328449    +1.576960

 2  1  6  7 F
 1  6  7  8 F

