%nproc=1
%mem=1GB
%chk=TMP_CALCS/scangeom_S02_240_010.chk
#p hf 3-21g
   scf=tight NoSymmetry guess=read
   opt=(tight,modredundant)

Geometry optimization at the 2D-PES

0 1
 C     +0.748054    +0.634502    +0.025566
 C     +1.385776    -0.508393    -0.011055
 H     +1.222349    +1.592955    +0.093110
 H     +2.454764    -0.541839    +0.042534
 H     +0.849815    -1.433842    -0.069775
 O     -0.658550    +0.667054    +0.040395
 O     -1.144660    +1.407077    -1.143092
 H     -0.349993    +1.529622    -1.695339

 2  1  6  7 F
 1  6  7  8 F

