%nproc=1
%mem=1GB
%chk=TMP_CALCS/scangeom_S02_020_200.chk
#p hf 3-21g
   scf=tight NoSymmetry guess=read
   opt=(tight,modredundant)

Geometry optimization at the 2D-PES

0 1
 C     +0.733101    +0.574699    +0.050642
 C     +1.416607    -0.536798    -0.045099
 H     +1.170017    +1.550872    +0.095035
 H     +2.486213    -0.502935    -0.059626
 H     +0.936951    -1.490210    -0.078101
 O     -0.655143    +0.711282    +0.048459
 O     -1.263826    -0.573122    +0.397906
 H     -2.155895    -0.425535    +0.041824

 2  1  6  7 F
 1  6  7  8 F

