%nproc=1
%mem=1GB
%chk=TMP_CALCS/scangeom_S02_000_050.chk
#p hf 3-21g
   scf=tight NoSymmetry guess=read
   opt=(tight,modredundant)

Geometry optimization at the 2D-PES

0 1
 C     +0.742381    +0.571865    +0.011275
 C     +1.441220    -0.534854    -0.051245
 H     +1.171336    +1.548668    +0.092916
 H     +2.509613    -0.488058    -0.028283
 H     +0.990819    -1.496017    -0.177038
 O     -0.645087    +0.702114    +0.037464
 O     -1.310066    -0.592446    -0.014294
 H     -0.853554    -1.097887    +0.685710

 2  1  6  7 F
 1  6  7  8 F

