%nproc=1
%mem=1GB
%chk=TMP_CALCS/scangeom_S02_180_110.chk
#p hf 3-21g
   scf=tight NoSymmetry guess=read
   opt=(tight,modredundant)

Geometry optimization at the 2D-PES

0 1
 C     +0.729359    +0.636147    +0.038275
 C     +1.369370    -0.504827    -0.012573
 H     +1.187452    +1.598547    +0.100463
 H     +2.439305    -0.522306    -0.000692
 H     +0.848625    -1.439205    -0.062386
 O     -0.672438    +0.676219    +0.027748
 O     -1.066565    +2.082437    +0.093940
 H     -1.420794    +2.207537    -0.802936

 2  1  6  7 F
 1  6  7  8 F

