%nproc=1
%mem=1GB
%chk=TMP_CALCS/scangeom_S02_020_300.chk
#p hf 3-21g
   scf=tight NoSymmetry guess=read
   opt=(tight,modredundant)

Geometry optimization at the 2D-PES

0 1
 C     +0.744699    +0.558926    +0.070346
 C     +1.456538    -0.535625    -0.045906
 H     +1.176889    +1.537469    +0.093568
 H     +2.523039    -0.464729    -0.088081
 H     +1.045610    -1.523610    -0.047203
 O     -0.641081    +0.699976    +0.064678
 O     -1.350070    -0.536826    +0.369979
 H     -1.066334    -1.148100    -0.333226

 2  1  6  7 F
 1  6  7  8 F

