%nproc=1
%mem=1GB
%chk=TMP_CALCS/scangeom_S02_020_100.chk
#p hf 3-21g
   scf=tight NoSymmetry guess=read
   opt=(tight,modredundant)

Geometry optimization at the 2D-PES

0 1
 C     +0.739342    +0.574425    +0.055213
 C     +1.423247    -0.536361    -0.041754
 H     +1.174014    +1.552447    +0.083989
 H     +2.492819    -0.503027    -0.061939
 H     +0.941191    -1.488618    -0.084177
 O     -0.654187    +0.707744    +0.054056
 O     -1.275340    -0.567049    +0.400617
 H     -1.478691    -0.414550    +1.339556

 2  1  6  7 F
 1  6  7  8 F

