%nproc=1
%mem=1GB
%chk=TMP_CALCS/scangeom_S02_000_250.chk
#p hf 3-21g
   scf=tight NoSymmetry guess=read
   opt=(tight,modredundant)

Geometry optimization at the 2D-PES

0 1
 C     +0.739948    +0.571368    +0.034092
 C     +1.431702    -0.535226    -0.059239
 H     +1.168194    +1.549669    +0.106433
 H     +2.500879    -0.493739    -0.069055
 H     +0.959727    -1.491849    -0.104901
 O     -0.650950    +0.705574    +0.051083
 O     -1.287799    -0.600477    -0.052775
 H     -1.667442    -0.552901    -0.948199

 2  1  6  7 F
 1  6  7  8 F

