%nproc=1
%mem=1GB
%chk=TMP_CALCS/scangeom_S02_190_100.chk
#p hf 3-21g
   scf=tight NoSymmetry guess=read
   opt=(tight,modredundant)

Geometry optimization at the 2D-PES

0 1
 C     +0.736235    +0.636822    +0.026552
 C     +1.372779    -0.506160    -0.013765
 H     +1.198354    +1.597134    +0.101915
 H     +2.442284    -0.529270    +0.018560
 H     +0.847803    -1.437833    -0.070815
 O     -0.668499    +0.678110    +0.033669
 O     -1.077812    +2.066071    -0.160238
 H     -1.300842    +2.075832    -1.108460

 2  1  6  7 F
 1  6  7  8 F

