%nproc=1
%mem=1GB
%chk=TMP_CALCS/scangeom_S02_120_180.chk
#p hf 3-21g
   scf=tight NoSymmetry guess=read
   opt=(tight,modredundant)

Geometry optimization at the 2D-PES

0 1
 C     +0.723939    +0.631885    +0.048385
 C     +1.367924    -0.506093    +0.004553
 H     +1.184852    +1.592959    +0.129233
 H     +2.438341    -0.528610    -0.001030
 H     +0.840983    -1.436811    -0.047322
 O     -0.677004    +0.666426    -0.027641
 O     -1.120175    +1.300064    +1.230679
 H     -2.080481    +1.276689    +1.081669

 2  1  6  7 F
 1  6  7  8 F

