%nproc=1
%mem=1GB
%chk=TMP_CALCS/scangeom_S02_140_060.chk
#p hf 3-21g
   scf=tight NoSymmetry guess=read
   opt=(tight,modredundant)

Geometry optimization at the 2D-PES

0 1
 C     +0.747657    +0.633470    +0.059044
 C     +1.377559    -0.511244    +0.001968
 H     +1.235996    +1.586211    +0.102077
 H     +2.446918    -0.546146    -0.030736
 H     +0.836805    -1.434816    -0.026206
 O     -0.654349    +0.686724    -0.014390
 O     -1.138678    +1.692095    +0.935762
 H     -0.708369    +2.508334    +0.619999

 2  1  6  7 F
 1  6  7  8 F

