%nproc=1
%mem=1GB
%chk=TMP_CALCS/scangeom_S02_190_020.chk
#p hf 3-21g
   scf=tight NoSymmetry guess=read
   opt=(tight,modredundant)

Geometry optimization at the 2D-PES

0 1
 C     +0.766975    +0.630710    +0.024346
 C     +1.385773    -0.521987    -0.004905
 H     +1.278333    +1.569217    +0.115500
 H     +2.453924    -0.564860    +0.042721
 H     +0.841717    -1.441486    -0.072780
 O     -0.631914    +0.696944    +0.022941
 O     -1.134377    +2.060901    -0.177032
 H     -0.396594    +2.553638    -0.579458

 2  1  6  7 F
 1  6  7  8 F

