%nproc=1
%mem=1GB
%chk=TMP_CALCS/scangeom_S02_170_120.chk
#p hf 3-21g
   scf=tight NoSymmetry guess=read
   opt=(tight,modredundant)

Geometry optimization at the 2D-PES

0 1
 C     +0.734969    +0.636469    +0.043451
 C     +1.370772    -0.506586    -0.006477
 H     +1.198263    +1.596435    +0.109465
 H     +2.440705    -0.528675    -0.004219
 H     +0.844973    -1.438334    -0.051110
 O     -0.667260    +0.681131    +0.006380
 O     -1.073359    +2.049482    +0.318610
 H     -1.555036    +2.284541    -0.493341

 2  1  6  7 F
 1  6  7  8 F

