%nproc=1
%mem=1GB
%chk=TMP_CALCS/scangeom_S02_010_240.chk
#p hf 3-21g
   scf=tight NoSymmetry guess=read
   opt=(tight,modredundant)

Geometry optimization at the 2D-PES

0 1
 C     +0.734993    +0.570061    +0.040971
 C     +1.423946    -0.538204    -0.051382
 H     +1.166727    +1.547786    +0.100665
 H     +2.493321    -0.498290    -0.061071
 H     +0.949294    -1.493347    -0.094068
 O     -0.653341    +0.708821    +0.047838
 O     -1.278329    -0.604999    +0.172785
 H     -1.793789    -0.623438    -0.651168

 2  1  6  7 F
 1  6  7  8 F

