%nproc=1
%mem=1GB
%chk=TMP_CALCS/scangeom_S02_160_080.chk
#p hf 3-21g
   scf=tight NoSymmetry guess=read
   opt=(tight,modredundant)

Geometry optimization at the 2D-PES

0 1
 C     +0.741411    +0.636657    +0.050937
 C     +1.373325    -0.507773    -0.004446
 H     +1.216142    +1.592524    +0.112433
 H     +2.443045    -0.535682    -0.021594
 H     +0.840665    -1.435953    -0.039210
 O     -0.661702    +0.684366    +0.002322
 O     -1.094731    +1.967643    +0.550734
 H     -0.951559    +2.561689    -0.207945

 2  1  6  7 F
 1  6  7  8 F

