%nproc=1
%mem=1GB
%chk=TMP_CALCS/scangeom_S02_220_050.chk
#p hf 3-21g
   scf=tight NoSymmetry guess=read
   opt=(tight,modredundant)

Geometry optimization at the 2D-PES

0 1
 C     +0.738995    +0.638562    +0.019248
 C     +1.375541    -0.504630    -0.019148
 H     +1.203061    +1.600144    +0.083773
 H     +2.444539    -0.534935    +0.029933
 H     +0.843849    -1.432604    -0.077166
 O     -0.666753    +0.670703    +0.049123
 O     -1.107924    +1.770413    -0.815941
 H     -0.613058    +1.609773    -1.641222

 2  1  6  7 F
 1  6  7  8 F

