%nproc=1
%mem=1GB
%chk=TMP_CALCS/scangeom_S02_090_120.chk
#p hf 3-21g
   scf=tight NoSymmetry guess=read
   opt=(tight,modredundant)

Geometry optimization at the 2D-PES

0 1
 C     +0.733658    +0.622355    +0.041490
 C     +1.376805    -0.514809    -0.003726
 H     +1.207633    +1.579686    +0.115714
 H     +2.447408    -0.541397    +0.009168
 H     +0.846154    -1.443202    -0.060333
 O     -0.676282    +0.672553    -0.017697
 O     -1.173104    +0.597120    +1.366789
 H     -1.657338    +1.438803    +1.433206

 2  1  6  7 F
 1  6  7  8 F

