%nproc=1
%mem=1GB
%chk=TMP_CALCS/scangeom_S02_030_170.chk
#p hf 3-21g
   scf=tight NoSymmetry guess=read
   opt=(tight,modredundant)

Geometry optimization at the 2D-PES

0 1
 C     +0.732510    +0.580644    +0.059757
 C     +1.408659    -0.535163    -0.035978
 H     +1.176530    +1.554391    +0.088321
 H     +2.478690    -0.510862    -0.050868
 H     +0.921637    -1.486044    -0.065942
 O     -0.658146    +0.710028    +0.044465
 O     -1.251875    -0.505804    +0.611292
 H     -2.172262    -0.202876    +0.686130

 2  1  6  7 F
 1  6  7  8 F

