%nproc=1
%mem=1GB
%chk=TMP_CALCS/scangeom_S02_300_050.chk
#p hf 3-21g
   scf=tight NoSymmetry guess=read
   opt=(tight,modredundant)

Geometry optimization at the 2D-PES

0 1
 C     +0.733288    +0.603915    +0.018901
 C     +1.406873    -0.519371    +0.004199
 H     +1.194899    +1.566922    +0.079222
 H     +2.476419    -0.507432    +0.041241
 H     +0.934176    -1.481678    -0.030593
 O     -0.673422    +0.691280    +0.000977
 O     -1.225483    +0.066082    -1.206941
 H     -0.789863    -0.803540    -1.225545

 2  1  6  7 F
 1  6  7  8 F

