%nproc=1
%mem=1GB
%chk=TMP_CALCS/scangeom_S02_020_280.chk
#p hf 3-21g
   scf=tight NoSymmetry guess=read
   opt=(tight,modredundant)

Geometry optimization at the 2D-PES

0 1
 C     +0.741452    +0.566054    +0.068903
 C     +1.440050    -0.535849    -0.047641
 H     +1.175010    +1.544016    +0.093012
 H     +2.507687    -0.482676    -0.089094
 H     +1.000226    -1.510409    -0.043053
 O     -0.647365    +0.703012    +0.064232
 O     -1.316930    -0.552428    +0.375335
 H     -1.287334    -1.028361    -0.475338

 2  1  6  7 F
 1  6  7  8 F

