%nproc=1
%mem=1GB
%chk=TMP_CALCS/scangeom_S02_020_140.chk
#p hf 3-21g
   scf=tight NoSymmetry guess=read
   opt=(tight,modredundant)

Geometry optimization at the 2D-PES

0 1
 C     +0.733514    +0.574895    +0.055649
 C     +1.416300    -0.536613    -0.042523
 H     +1.170988    +1.551552    +0.088835
 H     +2.485963    -0.502825    -0.060577
 H     +0.936467    -1.490164    -0.080815
 O     -0.654779    +0.711024    +0.052446
 O     -1.264628    -0.574388    +0.397737
 H     -1.982800    -0.254957    +0.968935

 2  1  6  7 F
 1  6  7  8 F

