%nproc=1
%mem=1GB
%chk=TMP_CALCS/scangeom_S02_010_130.chk
#p hf 3-21g
   scf=tight NoSymmetry guess=read
   opt=(tight,modredundant)

Geometry optimization at the 2D-PES

0 1
 C     +0.736805    +0.570097    +0.045317
 C     +1.425270    -0.538328    -0.046611
 H     +1.168092    +1.549005    +0.089789
 H     +2.494698    -0.498977    -0.059064
 H     +0.948665    -1.491916    -0.104515
 O     -0.653309    +0.707664    +0.051965
 O     -1.280686    -0.604111    +0.177137
 H     -1.899528    -0.428219    +0.906151

 2  1  6  7 F
 1  6  7  8 F

