%nproc=1
%mem=1GB
%chk=TMP_CALCS/scangeom_S02_230_000.chk
#p hf 3-21g
   scf=tight NoSymmetry guess=read
   opt=(tight,modredundant)

Geometry optimization at the 2D-PES

0 1
 C     +0.753507    +0.632716    +0.023947
 C     +1.389617    -0.510695    -0.008084
 H     +1.233937    +1.588412    +0.103250
 H     +2.457962    -0.546581    +0.055966
 H     +0.851813    -1.434253    -0.075926
 O     -0.652266    +0.673114    +0.037897
 O     -1.147620    +1.603573    -0.999698
 H     -0.344527    +1.951367    -1.429659

 2  1  6  7 F
 1  6  7  8 F

