%nproc=1
%mem=1GB
%chk=TMP_CALCS/scangeom_S02_000_280.chk
#p hf 3-21g
   scf=tight NoSymmetry guess=read
   opt=(tight,modredundant)

Geometry optimization at the 2D-PES

0 1
 C     +0.741833    +0.570330    +0.045165
 C     +1.437073    -0.534577    -0.060152
 H     +1.170321    +1.548944    +0.106062
 H     +2.505565    -0.488624    -0.084548
 H     +0.977909    -1.499197    -0.080261
 O     -0.647514    +0.701304    +0.057992
 O     -1.301397    -0.593588    -0.065059
 H     -1.247629    -0.764682    -1.024709

 2  1  6  7 F
 1  6  7  8 F

