%nproc=1
%mem=1GB
%chk=TMP_CALCS/scangeom_S02_060_150.chk
#p hf 3-21g
   scf=tight NoSymmetry guess=read
   opt=(tight,modredundant)

Geometry optimization at the 2D-PES

0 1
 C     +0.731303    +0.606780    +0.051287
 C     +1.387710    -0.522089    -0.019108
 H     +1.195755    +1.569795    +0.101221
 H     +2.458424    -0.529118    -0.011040
 H     +0.875783    -1.461396    -0.058084
 O     -0.671376    +0.693321    +0.008336
 O     -1.201481    -0.079351    +1.147863
 H     -2.015889    +0.427780    +1.308114

 2  1  6  7 F
 1  6  7  8 F

