%nproc=1
%mem=1GB
%chk=TMP_CALCS/scangeom_S02_010_210.chk
#p hf 3-21g
   scf=tight NoSymmetry guess=read
   opt=(tight,modredundant)

Geometry optimization at the 2D-PES

0 1
 C     +0.731703    +0.571564    +0.039547
 C     +1.418446    -0.538451    -0.049735
 H     +1.165869    +1.548342    +0.098321
 H     +2.488000    -0.499977    -0.055926
 H     +0.942534    -1.492613    -0.101403
 O     -0.653821    +0.711591    +0.046590
 O     -1.268844    -0.609683    +0.176514
 H     -2.093511    -0.441787    -0.308897

 2  1  6  7 F
 1  6  7  8 F

