%nproc=1
%mem=1GB
%chk=TMP_CALCS/scangeom_S02_040_090.chk
#p hf 3-21g
   scf=tight NoSymmetry guess=read
   opt=(tight,modredundant)

Geometry optimization at the 2D-PES

0 1
 C     +0.742363    +0.588470    +0.064054
 C     +1.412161    -0.530795    -0.031507
 H     +1.190671    +1.560715    +0.079838
 H     +2.482417    -0.517306    -0.052749
 H     +0.914334    -1.477130    -0.055975
 O     -0.659308    +0.705700    +0.044115
 O     -1.254650    -0.387627    +0.813245
 H     -1.295390    +0.012957    +1.699273

 2  1  6  7 F
 1  6  7  8 F

