%nproc=1
%mem=1GB
%chk=TMP_CALCS/scangeom_S02_200_020.chk
#p hf 3-21g
   scf=tight NoSymmetry guess=read
   opt=(tight,modredundant)

Geometry optimization at the 2D-PES

0 1
 C     +0.757266    +0.633991    +0.016724
 C     +1.382372    -0.515379    -0.011619
 H     +1.248715    +1.581280    +0.116464
 H     +2.450648    -0.553664    +0.040907
 H     +0.842976    -1.437944    -0.078091
 O     -0.644127    +0.688226    +0.041292
 O     -1.122017    +2.004095    -0.399788
 H     -0.374503    +2.384834    -0.896275

 2  1  6  7 F
 1  6  7  8 F

