%nproc=1
%mem=1GB
%chk=TMP_CALCS/scangeom_S02_180_140.chk
#p hf 3-21g
   scf=tight NoSymmetry guess=read
   opt=(tight,modredundant)

Geometry optimization at the 2D-PES

0 1
 C     +0.721674    +0.634654    +0.040518
 C     +1.367251    -0.503483    -0.011966
 H     +1.176730    +1.598997    +0.095546
 H     +2.437203    -0.515299    -0.001394
 H     +0.851613    -1.440587    -0.063107
 O     -0.676735    +0.671149    +0.027429
 O     -1.056761    +2.084943    +0.097148
 H     -1.800594    +2.081968    -0.527770

 2  1  6  7 F
 1  6  7  8 F

