%nproc=1
%mem=1GB
%chk=TMP_CALCS/scangeom_S02_040_100.chk
#p hf 3-21g
   scf=tight NoSymmetry guess=read
   opt=(tight,modredundant)

Geometry optimization at the 2D-PES

0 1
 C     +0.740730    +0.588050    +0.064921
 C     +1.410778    -0.530892    -0.031596
 H     +1.189710    +1.560019    +0.081700
 H     +2.481039    -0.516459    -0.052745
 H     +0.914338    -1.477937    -0.055301
 O     -0.659633    +0.706303    +0.044207
 O     -1.253252    -0.389612    +0.812699
 H     -1.443138    +0.066224    +1.650824

 2  1  6  7 F
 1  6  7  8 F

