%nproc=1
%mem=1GB
%chk=TMP_CALCS/scangeom_S02_240_100.chk
#p hf 3-21g
   scf=tight NoSymmetry guess=read
   opt=(tight,modredundant)

Geometry optimization at the 2D-PES

0 1
 C     +0.722545    +0.636098    +0.024406
 C     +1.368377    -0.501135    -0.025660
 H     +1.181735    +1.600229    +0.056323
 H     +2.438298    -0.524203    +0.008208
 H     +0.844471    -1.434358    -0.072453
 O     -0.684875    +0.662227    +0.054014
 O     -1.100062    +1.416389    -1.139314
 H     -1.334296    +0.684901    -1.736635

 2  1  6  7 F
 1  6  7  8 F

