%nproc=1
%mem=1GB
%chk=TMP_CALCS/scangeom_S02_080_070.chk
#p hf 3-21g
   scf=tight NoSymmetry guess=read
   opt=(tight,modredundant)

Geometry optimization at the 2D-PES

0 1
 C     +0.741755    +0.616924    +0.044432
 C     +1.388181    -0.518105    -0.010662
 H     +1.215589    +1.576486    +0.097004
 H     +2.459011    -0.541284    -0.004802
 H     +0.860176    -1.448570    -0.059373
 O     -0.670821    +0.679530    -0.003125
 O     -1.199808    +0.364054    +1.332273
 H     -0.938724    +1.149114    +1.847322

 2  1  6  7 F
 1  6  7  8 F

