%nproc=1
%mem=1GB
%chk=TMP_CALCS/scangeom_S02_000_310.chk
#p hf 3-21g
   scf=tight NoSymmetry guess=read
   opt=(tight,modredundant)

Geometry optimization at the 2D-PES

0 1
 C     +0.744620    +0.561670    +0.054437
 C     +1.455485    -0.534957    -0.057177
 H     +1.172626    +1.540799    +0.107040
 H     +2.522389    -0.467807    -0.090448
 H     +1.034536    -1.518480    -0.057268
 O     -0.638735    +0.697094    +0.059028
 O     -1.342266    -0.572318    -0.081009
 H     -0.915769    -0.990430    -0.852448

 2  1  6  7 F
 1  6  7  8 F

