%nproc=1
%mem=1GB
%chk=TMP_CALCS/scangeom_S02_180_130.chk
#p hf 3-21g
   scf=tight NoSymmetry guess=read
   opt=(tight,modredundant)

Geometry optimization at the 2D-PES

0 1
 C     +0.723993    +0.635200    +0.040059
 C     +1.367801    -0.503851    -0.012224
 H     +1.179780    +1.599017    +0.096755
 H     +2.437752    -0.517393    -0.001274
 H     +0.850624    -1.440140    -0.062877
 O     -0.675408    +0.672789    +0.027360
 O     -1.059805    +2.084255    +0.096474
 H     -1.689225    +2.119456    -0.642955

 2  1  6  7 F
 1  6  7  8 F

