%nproc=1
%mem=1GB
%chk=TMP_CALCS/scangeom_S02_040_120.chk
#p hf 3-21g
   scf=tight NoSymmetry guess=read
   opt=(tight,modredundant)

Geometry optimization at the 2D-PES

0 1
 C     +0.737197    +0.588091    +0.064442
 C     +1.407389    -0.530848    -0.031485
 H     +1.187329    +1.559421    +0.085359
 H     +2.477694    -0.515665    -0.049449
 H     +0.912691    -1.478773    -0.056224
 O     -0.660360    +0.706924    +0.042248
 O     -1.247782    -0.393973    +0.813078
 H     -1.723063    +0.116997    +1.490020

 2  1  6  7 F
 1  6  7  8 F

