%nproc=1
%mem=1GB
%chk=TMP_CALCS/scangeom_S02_290_020.chk
#p hf 3-21g
   scf=tight NoSymmetry guess=read
   opt=(tight,modredundant)

Geometry optimization at the 2D-PES

0 1
 C     +0.739498    +0.619138    +0.030008
 C     +1.402643    -0.512009    -0.000877
 H     +1.201616    +1.582861    +0.081760
 H     +2.473144    -0.517847    +0.018367
 H     +0.895151    -1.456534    -0.023207
 O     -0.668568    +0.671102    +0.018636
 O     -1.202811    +0.261293    -1.298359
 H     -0.470313    -0.240963    -1.702362

 2  1  6  7 F
 1  6  7  8 F

