%nproc=1
%mem=1GB
%chk=TMP_CALCS/scangeom_S02_150_150.chk
#p hf 3-21g
   scf=tight NoSymmetry guess=read
   opt=(tight,modredundant)

Geometry optimization at the 2D-PES

0 1
 C     +0.729843    +0.635859    +0.054740
 C     +1.368218    -0.505515    +0.000815
 H     +1.189984    +1.597762    +0.117816
 H     +2.438093    -0.527551    -0.016632
 H     +0.840837    -1.436534    -0.037508
 O     -0.668188    +0.676779    -0.015552
 O     -1.085570    +1.850704    +0.759692
 H     -1.898051    +2.082151    +0.279437

 2  1  6  7 F
 1  6  7  8 F

