%nproc=1
%mem=1GB
%chk=TMP_CALCS/scangeom_S02_070_000.chk
#p hf 3-21g
   scf=tight NoSymmetry guess=read
   opt=(tight,modredundant)

Geometry optimization at the 2D-PES

0 1
 C     +0.750693    +0.616190    +0.033069
 C     +1.397371    -0.522891    -0.014680
 H     +1.225161    +1.574790    +0.079018
 H     +2.468128    -0.545451    -0.008780
 H     +0.871507    -1.454736    -0.077899
 O     -0.658817    +0.673147    +0.001971
 O     -1.226362    +0.148010    +1.265366
 H     -0.443908    -0.102239    +1.791601

 2  1  6  7 F
 1  6  7  8 F

