%nproc=1
%mem=1GB
%chk=TMP_CALCS/scangeom_S02_170_180.chk
#p hf 3-21g
   scf=tight NoSymmetry guess=read
   opt=(tight,modredundant)

Geometry optimization at the 2D-PES

0 1
 C     +0.721415    +0.633437    +0.047229
 C     +1.367348    -0.504531    -0.004673
 H     +1.176792    +1.597871    +0.102171
 H     +2.437340    -0.516199    -0.002345
 H     +0.851303    -1.441497    -0.053717
 O     -0.675054    +0.671748    +0.002734
 O     -1.055275    +2.051983    +0.324691
 H     -2.020968    +1.964854    +0.266211

 2  1  6  7 F
 1  6  7  8 F

