%nproc=1
%mem=1GB
%chk=TMP_CALCS/scangeom_S02_110_050.chk
#p hf 3-21g
   scf=tight NoSymmetry guess=read
   opt=(tight,modredundant)

Geometry optimization at the 2D-PES

0 1
 C     +0.752041    +0.623589    +0.048822
 C     +1.385555    -0.519552    -0.000629
 H     +1.239555    +1.578714    +0.088683
 H     +2.455755    -0.555857    -0.018965
 H     +0.843616    -1.442150    -0.041826
 O     -0.654445    +0.681714    -0.013595
 O     -1.189822    +1.085636    +1.300324
 H     -0.673012    +1.879312    +1.534672

 2  1  6  7 F
 1  6  7  8 F

