%nproc=1
%mem=1GB
%chk=TMP_CALCS/scangeom_S02_000_180.chk
#p hf 3-21g
   scf=tight NoSymmetry guess=read
   opt=(tight,modredundant)

Geometry optimization at the 2D-PES

0 1
 C     +0.732063    +0.572961    +0.029046
 C     +1.420455    -0.536356    -0.055753
 H     +1.164791    +1.549547    +0.101089
 H     +2.489969    -0.495892    -0.057706
 H     +0.946655    -1.490562    -0.123354
 O     -0.652318    +0.712427    +0.048133
 O     -1.268523    -0.611498    -0.043748
 H     -2.201970    -0.343745    -0.018297

 2  1  6  7 F
 1  6  7  8 F

