%nproc=1
%mem=1GB
%chk=TMP_CALCS/scangeom_S02_130_160.chk
#p hf 3-21g
   scf=tight NoSymmetry guess=read
   opt=(tight,modredundant)

Geometry optimization at the 2D-PES

0 1
 C     +0.727351    +0.633843    +0.052153
 C     +1.367641    -0.506143    +0.004457
 H     +1.188002    +1.595176    +0.128445
 H     +2.437774    -0.530850    -0.009299
 H     +0.837250    -1.435177    -0.039056
 O     -0.672170    +0.669965    -0.025886
 O     -1.109821    +1.508811    +1.102528
 H     -1.998488    +1.746321    +0.788730

 2  1  6  7 F
 1  6  7  8 F

