%nproc=1
%mem=1GB
%chk=TMP_CALCS/scangeom_S02_040_010.chk
#p hf 3-21g
   scf=tight NoSymmetry guess=read
   opt=(tight,modredundant)

Geometry optimization at the 2D-PES

0 1
 C     +0.748848    +0.590044    +0.040559
 C     +1.427102    -0.530519    -0.033334
 H     +1.195355    +1.561820    +0.067567
 H     +2.496903    -0.514158    -0.034744
 H     +0.941806    -1.482830    -0.110469
 O     -0.647230    +0.691725    +0.039556
 O     -1.278048    -0.367087    +0.840115
 H     -0.527921    -0.783562    +1.306659

 2  1  6  7 F
 1  6  7  8 F

