%nproc=1
%mem=1GB
%chk=TMP_CALCS/scangeom_S02_080_170.chk
#p hf 3-21g
   scf=tight NoSymmetry guess=read
   opt=(tight,modredundant)

Geometry optimization at the 2D-PES

0 1
 C     +0.726918    +0.619426    +0.043104
 C     +1.375550    -0.514876    -0.007675
 H     +1.195777    +1.578043    +0.118635
 H     +2.446140    -0.534444    +0.010594
 H     +0.853569    -1.448276    -0.062828
 O     -0.678980    +0.676114    -0.015001
 O     -1.169010    +0.350110    +1.341948
 H     -2.106072    +0.580986    +1.220046

 2  1  6  7 F
 1  6  7  8 F

