%nproc=1
%mem=1GB
%chk=TMP_CALCS/scangeom_S02_090_210.chk
#p hf 3-21g
   scf=tight NoSymmetry guess=read
   opt=(tight,modredundant)

Geometry optimization at the 2D-PES

0 1
 C     +0.726430    +0.622298    +0.042632
 C     +1.372203    -0.514028    -0.002853
 H     +1.196375    +1.579680    +0.122372
 H     +2.442789    -0.536732    +0.011820
 H     +0.848252    -1.446260    -0.061690
 O     -0.679746    +0.672527    -0.020005
 O     -1.161183    +0.592996    +1.376227
 H     -2.011711    +0.149897    +1.215221

 2  1  6  7 F
 1  6  7  8 F

