%nproc=1
%mem=1GB
%chk=TMP_CALCS/scangeom_S02_140_030.chk
#p hf 3-21g
   scf=tight NoSymmetry guess=read
   opt=(tight,modredundant)

Geometry optimization at the 2D-PES

0 1
 C     +0.759500    +0.629467    +0.061690
 C     +1.383112    -0.518672    +0.002155
 H     +1.261562    +1.577867    +0.082799
 H     +2.451955    -0.559457    -0.039596
 H     +0.836592    -1.438940    -0.020972
 O     -0.639888    +0.695289    -0.013191
 O     -1.160254    +1.695577    +0.928837
 H     -0.448311    +2.359368    +0.991818

 2  1  6  7 F
 1  6  7  8 F

