%nproc=1
%mem=1GB
%chk=TMP_CALCS/scangeom_S02_270_000.chk
#p hf 3-21g
   scf=tight NoSymmetry guess=read
   opt=(tight,modredundant)

Geometry optimization at the 2D-PES

0 1
 C     +0.742205    +0.624608    +0.033391
 C     +1.397500    -0.510021    -0.001019
 H     +1.209134    +1.586492    +0.087343
 H     +2.468124    -0.525091    +0.023407
 H     +0.878500    -1.447157    -0.036957
 O     -0.668041    +0.669547    +0.026898
 O     -1.177773    +0.732649    -1.362426
 H     -0.371720    +0.725656    -1.911985

 2  1  6  7 F
 1  6  7  8 F

