%nproc=1
%mem=1GB
%chk=TMP_CALCS/scangeom_S02_060_260.chk
#p hf 3-21g
   scf=tight NoSymmetry guess=read
   opt=(tight,modredundant)

Geometry optimization at the 2D-PES

0 1
 C     +0.737646    +0.597053    +0.056666
 C     +1.407826    -0.524100    -0.023401
 H     +1.199552    +1.560876    +0.099792
 H     +2.478163    -0.514614    -0.028795
 H     +0.927288    -1.480789    -0.070688
 O     -0.668590    +0.691242    +0.025343
 O     -1.245956    -0.065073    +1.140948
 H     -1.514830    -0.890301    +0.701653

 2  1  6  7 F
 1  6  7  8 F

