%nproc=1
%mem=1GB
%chk=TMP_CALCS/scangeom_S02_070_250.chk
#p hf 3-21g
   scf=tight NoSymmetry guess=read
   opt=(tight,modredundant)

Geometry optimization at the 2D-PES

0 1
 C     +0.733000    +0.607901    +0.050495
 C     +1.390127    -0.521097    -0.015694
 H     +1.200868    +1.568143    +0.105488
 H     +2.460766    -0.529144    -0.011084
 H     +0.885825    -1.465092    -0.063170
 O     -0.674383    +0.686910    +0.006703
 O     -1.209476    +0.133718    +1.261225
 H     -1.610119    -0.686893    +0.927452

 2  1  6  7 F
 1  6  7  8 F

