%nproc=1
%mem=1GB
%chk=TMP_CALCS/scangeom_S02_090_050.chk
#p hf 3-21g
   scf=tight NoSymmetry guess=read
   opt=(tight,modredundant)

Geometry optimization at the 2D-PES

0 1
 C     +0.749479    +0.618533    +0.040589
 C     +1.389975    -0.521244    -0.008268
 H     +1.229237    +1.576217    +0.085679
 H     +2.460735    -0.551151    -0.008676
 H     +0.855123    -1.447892    -0.058080
 O     -0.661473    +0.679602    -0.007536
 O     -1.206292    +0.612760    +1.363029
 H     -0.698088    +1.287605    +1.850753

 2  1  6  7 F
 1  6  7  8 F

