%nproc=1
%mem=1GB
%chk=TMP_CALCS/scangeom_S02_150_160.chk
#p hf 3-21g
   scf=tight NoSymmetry guess=read
   opt=(tight,modredundant)

Geometry optimization at the 2D-PES

0 1
 C     +0.727770    +0.635299    +0.054952
 C     +1.367696    -0.505318    +0.001221
 H     +1.186351    +1.598007    +0.117476
 H     +2.437605    -0.525745    -0.015453
 H     +0.841917    -1.437200    -0.038344
 O     -0.669354    +0.675458    -0.016780
 O     -1.082530    +1.850939    +0.760494
 H     -1.970785    +1.982512    +0.389360

 2  1  6  7 F
 1  6  7  8 F

