%nproc=1
%mem=1GB
%chk=TMP_CALCS/scangeom_S02_090_000.chk
#p hf 3-21g
   scf=tight NoSymmetry guess=read
   opt=(tight,modredundant)

Geometry optimization at the 2D-PES

0 1
 C     +0.753717    +0.622622    +0.037669
 C     +1.390026    -0.521188    -0.006396
 H     +1.234919    +1.579061    +0.081172
 H     +2.460600    -0.554255    -0.013244
 H     +0.852145    -1.446168    -0.058471
 O     -0.654850    +0.672394    -0.008572
 O     -1.208416    +0.609749    +1.364446
 H     -0.424449    +0.549465    +1.941561

 2  1  6  7 F
 1  6  7  8 F

