%nproc=1
%mem=1GB
%chk=TMP_CALCS/scangeom_S02_010_070.chk
#p hf 3-21g
   scf=tight NoSymmetry guess=read
   opt=(tight,modredundant)

Geometry optimization at the 2D-PES

0 1
 C     +0.741690    +0.572951    +0.026237
 C     +1.434071    -0.537073    -0.044102
 H     +1.172111    +1.550618    +0.087273
 H     +2.503051    -0.498747    -0.032205
 H     +0.968281    -1.493565    -0.147962
 O     -0.648365    +0.699920    +0.039729
 O     -1.298018    -0.594815    +0.199876
 H     -1.083526    -0.828443    +1.123816

 2  1  6  7 F
 1  6  7  8 F

