%nproc=1
%mem=1GB
%chk=TMP_CALCS/scangeom_S02_220_000.chk
#p hf 3-21g
   scf=tight NoSymmetry guess=read
   opt=(tight,modredundant)

Geometry optimization at the 2D-PES

0 1
 C     +0.759528    +0.634136    +0.015703
 C     +1.386705    -0.514137    -0.010298
 H     +1.248532    +1.584044    +0.112848
 H     +2.453944    -0.555587    +0.062448
 H     +0.844960    -1.434619    -0.085970
 O     -0.642325    +0.683730    +0.040646
 O     -1.143171    +1.769041    -0.822572
 H     -0.345197    +2.183720    -1.198589

 2  1  6  7 F
 1  6  7  8 F

