%nproc=1
%mem=1GB
%chk=TMP_CALCS/scangeom_S02_090_160.chk
#p hf 3-21g
   scf=tight NoSymmetry guess=read
   opt=(tight,modredundant)

Geometry optimization at the 2D-PES

0 1
 C     +0.726808    +0.623559    +0.039149
 C     +1.371179    -0.513389    -0.002339
 H     +1.196357    +1.581168    +0.124214
 H     +2.441674    -0.538109    +0.017418
 H     +0.843127    -1.443028    -0.062482
 O     -0.679868    +0.670072    -0.025149
 O     -1.156677    +0.593598    +1.371536
 H     -2.050861    +0.957400    +1.252436

 2  1  6  7 F
 1  6  7  8 F

