%nproc=1
%mem=1GB
%chk=TMP_CALCS/scangeom_S02_140_210.chk
#p hf 3-21g
   scf=tight NoSymmetry guess=read
   opt=(tight,modredundant)

Geometry optimization at the 2D-PES

0 1
 C     +0.724895    +0.634025    +0.055487
 C     +1.367541    -0.505298    +0.002713
 H     +1.183405    +1.597087    +0.115038
 H     +2.437535    -0.523098    -0.012212
 H     +0.844938    -1.438863    -0.042052
 O     -0.671707    +0.673320    -0.017965
 O     -1.094381    +1.695047    +0.951476
 H     -1.960776    +1.329748    +1.196320

 2  1  6  7 F
 1  6  7  8 F

