%nproc=1
%mem=1GB
%chk=TMP_CALCS/scangeom_S02_160_030.chk
#p hf 3-21g
   scf=tight NoSymmetry guess=read
   opt=(tight,modredundant)

Geometry optimization at the 2D-PES

0 1
 C     +0.760943    +0.631059    +0.056967
 C     +1.381484    -0.519242    -0.000842
 H     +1.269018    +1.574599    +0.093363
 H     +2.450579    -0.559301    -0.026616
 H     +0.836644    -1.440321    -0.030153
 O     -0.638137    +0.698313    -0.004379
 O     -1.135609    +1.965558    +0.536648
 H     -0.420904    +2.602742    +0.352427

 2  1  6  7 F
 1  6  7  8 F

