%nproc=1
%mem=1GB
%chk=TMP_CALCS/scangeom_S02_080_110.chk
#p hf 3-21g
   scf=tight NoSymmetry guess=read
   opt=(tight,modredundant)

Geometry optimization at the 2D-PES

0 1
 C     +0.732976    +0.618317    +0.042935
 C     +1.380802    -0.515942    -0.008642
 H     +1.204489    +1.577131    +0.112183
 H     +2.451512    -0.536537    +0.005809
 H     +0.856209    -1.447924    -0.063144
 O     -0.676584    +0.675748    -0.009616
 O     -1.182235    +0.355990    +1.337227
 H     -1.521927    +1.226940    +1.607042

 2  1  6  7 F
 1  6  7  8 F

