%nproc=1
%mem=1GB
%chk=TMP_CALCS/scangeom_S02_050_140.chk
#p hf 3-21g
   scf=tight NoSymmetry guess=read
   opt=(tight,modredundant)

Geometry optimization at the 2D-PES

0 1
 C     +0.736553    +0.596283    +0.060099
 C     +1.399189    -0.527794    -0.025125
 H     +1.195139    +1.563430    +0.089088
 H     +2.469856    -0.524297    -0.033107
 H     +0.895354    -1.471479    -0.053715
 O     -0.665037    +0.701555    +0.027923
 O     -1.232938    -0.250124    +0.992859
 H     -1.950490    +0.295624    +1.357511

 2  1  6  7 F
 1  6  7  8 F

