%nproc=1
%mem=1GB
%chk=TMP_CALCS/scangeom_S02_080_100.chk
#p hf 3-21g
   scf=tight NoSymmetry guess=read
   opt=(tight,modredundant)

Geometry optimization at the 2D-PES

0 1
 C     +0.735187    +0.617969    +0.043710
 C     +1.382626    -0.516401    -0.009117
 H     +1.207555    +1.576877    +0.108932
 H     +2.453375    -0.537601    +0.002833
 H     +0.857224    -1.448032    -0.062031
 O     -0.675334    +0.676660    -0.007521
 O     -1.187059    +0.357692    +1.335757
 H     -1.376099    +1.250202    +1.674838

 2  1  6  7 F
 1  6  7  8 F

