%nproc=1
%mem=1GB
%chk=TMP_CALCS/scangeom_S02_130_000.chk
#p hf 3-21g
   scf=tight NoSymmetry guess=read
   opt=(tight,modredundant)

Geometry optimization at the 2D-PES

0 1
 C     +0.766994    +0.627945    +0.061508
 C     +1.385952    -0.523367    +0.002045
 H     +1.268359    +1.576866    +0.069430
 H     +2.454750    -0.567917    -0.038624
 H     +0.836022    -1.441621    -0.025393
 O     -0.631987    +0.695150    -0.010643
 O     -1.183168    +1.515040    +1.083811
 H     -0.409604    +1.812228    +1.596896

 2  1  6  7 F
 1  6  7  8 F

