%nproc=1
%mem=1GB
%chk=TMP_CALCS/scangeom_S02_200_000.chk
#p hf 3-21g
   scf=tight NoSymmetry guess=read
   opt=(tight,modredundant)

Geometry optimization at the 2D-PES

0 1
 C     +0.765243    +0.631794    +0.016917
 C     +1.385502    -0.520163    -0.009163
 H     +1.269867    +1.573048    +0.118755
 H     +2.453106    -0.563591    +0.051153
 H     +0.841637    -1.439452    -0.082198
 O     -0.634063    +0.694199    +0.038311
 O     -1.135647    +2.003588    -0.400752
 H     -0.341560    +2.528906    -0.607525

 2  1  6  7 F
 1  6  7  8 F

