%nproc=1
%mem=1GB
%chk=TMP_CALCS/scangeom_S02_050_230.chk
#p hf 3-21g
   scf=tight NoSymmetry guess=read
   opt=(tight,modredundant)

Geometry optimization at the 2D-PES

0 1
 C     +0.734426    +0.594890    +0.061963
 C     +1.399663    -0.527829    -0.027289
 H     +1.190986    +1.562006    +0.093835
 H     +2.469998    -0.522031    -0.040337
 H     +0.901720    -1.474691    -0.043434
 O     -0.665003    +0.703542    +0.028573
 O     -1.232727    -0.252601    +0.989422
 H     -1.890120    -0.684079    +0.417631

 2  1  6  7 F
 1  6  7  8 F

