%nproc=1
%mem=1GB
%chk=TMP_CALCS/scangeom_S02_070_080.chk
#p hf 3-21g
   scf=tight NoSymmetry guess=read
   opt=(tight,modredundant)

Geometry optimization at the 2D-PES

0 1
 C     +0.745110    +0.611310    +0.047270
 C     +1.394158    -0.522265    -0.015780
 H     +1.215529    +1.572904    +0.086789
 H     +2.465036    -0.541228    -0.013079
 H     +0.869649    -1.455032    -0.058447
 O     -0.667159    +0.688046    +0.006207
 O     -1.218244    +0.144700    +1.255906
 H     -1.108958    +0.889292    +1.875475

 2  1  6  7 F
 1  6  7  8 F

