%nproc=1
%mem=1GB
%chk=TMP_CALCS/scangeom_S02_140_040.chk
#p hf 3-21g
   scf=tight NoSymmetry guess=read
   opt=(tight,modredundant)

Geometry optimization at the 2D-PES

0 1
 C     +0.755421    +0.630783    +0.061062
 C     +1.381282    -0.516080    +0.002266
 H     +1.253712    +1.580419    +0.089410
 H     +2.450302    -0.554883    -0.036654
 H     +0.836691    -1.437462    -0.022244
 O     -0.644837    +0.692772    -0.014011
 O     -1.153874    +1.694217    +0.930614
 H     -0.512995    +2.426268    +0.859491

 2  1  6  7 F
 1  6  7  8 F

