%nproc=1
%mem=1GB
%chk=TMP_CALCS/scangeom_S02_150_180.chk
#p hf 3-21g
   scf=tight NoSymmetry guess=read
   opt=(tight,modredundant)

Geometry optimization at the 2D-PES

0 1
 C     +0.724827    +0.634303    +0.055301
 C     +1.367145    -0.505113    +0.002012
 H     +1.182100    +1.597854    +0.116665
 H     +2.437106    -0.523200    -0.013274
 H     +0.843803    -1.438290    -0.040136
 O     -0.671180    +0.673538    -0.018561
 O     -1.078667    +1.851319    +0.761455
 H     -2.041333    +1.786676    +0.647500

 2  1  6  7 F
 1  6  7  8 F

