%nproc=1
%mem=1GB
%chk=TMP_CALCS/scangeom_S02_160_000.chk
#p hf 3-21g
   scf=tight NoSymmetry guess=read
   opt=(tight,modredundant)

Geometry optimization at the 2D-PES

0 1
 C     +0.770350    +0.627977    +0.060934
 C     +1.384867    -0.525641    +0.000656
 H     +1.287280    +1.568371    +0.076137
 H     +2.453704    -0.571047    -0.026543
 H     +0.834854    -1.443544    -0.030619
 O     -0.626160    +0.704105    -0.005939
 O     -1.148327    +1.966145    +0.533777
 H     -0.365030    +2.469349    +0.821195

 2  1  6  7 F
 1  6  7  8 F

