%nproc=1
%mem=1GB
%chk=TMP_CALCS/scangeom_S02_350_010.chk
#p hf 3-21g
   scf=tight NoSymmetry guess=read
   opt=(tight,modredundant)

Geometry optimization at the 2D-PES

0 1
 C     +0.741291    +0.559357    +0.008311
 C     +1.469387    -0.531199    +0.028402
 H     +1.165420    +1.539002    +0.079643
 H     +2.533510    -0.445846    +0.095162
 H     +1.084663    -1.529742    -0.022251
 O     -0.641980    +0.695855    -0.037242
 O     -1.388595    -0.534180    -0.295991
 H     -0.738228    -1.252040    -0.226676

 2  1  6  7 F
 1  6  7  8 F

