%nproc=1
%mem=1GB
%chk=TMP_CALCS/scangeom_S02_000_010.chk
#p hf 3-21g
   scf=tight NoSymmetry guess=read
   opt=(tight,modredundant)

Geometry optimization at the 2D-PES

0 1
 C     +0.751344    +0.557908    +0.008619
 C     +1.479447    -0.531248    -0.059102
 H     +1.175463    +1.536990    +0.087299
 H     +2.545441    -0.446314    -0.041062
 H     +1.090246    -1.521696    -0.177269
 O     -0.629083    +0.695851    +0.045656
 O     -1.380232    -0.555578    +0.002915
 H     -0.714178    -1.254790    +0.118325

 2  1  6  7 F
 1  6  7  8 F

