%nproc=1
%mem=1GB
%chk=TMP_CALCS/scangeom_S02_000_120.chk
#p hf 3-21g
   scf=tight NoSymmetry guess=read
   opt=(tight,modredundant)

Geometry optimization at the 2D-PES

0 1
 C     +0.736077    +0.571068    +0.033313
 C     +1.426794    -0.536483    -0.053180
 H     +1.166043    +1.549588    +0.094631
 H     +2.496153    -0.494457    -0.058974
 H     +0.953124    -1.490183    -0.126400
 O     -0.651926    +0.709124    +0.051666
 O     -1.279050    -0.605957    -0.042627
 H     -1.777689    -0.611447    +0.791670

 2  1  6  7 F
 1  6  7  8 F

