%nproc=1
%mem=1GB
%chk=TMP_CALCS/scangeom_S02_160_120.chk
#p hf 3-21g
   scf=tight NoSymmetry guess=read
   opt=(tight,modredundant)

Geometry optimization at the 2D-PES

0 1
 C     +0.730598    +0.636438    +0.052001
 C     +1.369106    -0.504911    -0.004418
 H     +1.190682    +1.598358    +0.110994
 H     +2.438989    -0.524773    -0.019403
 H     +0.844249    -1.437420    -0.042298
 O     -0.668851    +0.678041    +0.000200
 O     -1.075578    +1.969904    +0.557457
 H     -1.543394    +2.342819    -0.208584

 2  1  6  7 F
 1  6  7  8 F

