%nproc=1
%mem=1GB
%chk=TMP_CALCS/scangeom_S02_100_140.chk
#p hf 3-21g
   scf=tight NoSymmetry guess=read
   opt=(tight,modredundant)

Geometry optimization at the 2D-PES

0 1
 C     +0.725403    +0.627603    +0.041104
 C     +1.369999    -0.509397    +0.000758
 H     +1.191387    +1.586304    +0.129882
 H     +2.440544    -0.533947    +0.013686
 H     +0.841225    -1.438626    -0.058405
 O     -0.680166    +0.665274    -0.027544
 O     -1.144060    +0.832790    +1.364988
 H     -1.871472    +1.460536    +1.214733

 2  1  6  7 F
 1  6  7  8 F

