%nproc=1
%mem=1GB
%chk=TMP_CALCS/scangeom_S02_040_190.chk
#p hf 3-21g
   scf=tight NoSymmetry guess=read
   opt=(tight,modredundant)

Geometry optimization at the 2D-PES

0 1
 C     +0.733084    +0.589242    +0.060959
 C     +1.402695    -0.530776    -0.032679
 H     +1.183530    +1.559506    +0.092428
 H     +2.472903    -0.516856    -0.046480
 H     +0.907892    -1.478288    -0.051964
 O     -0.661401    +0.709421    +0.036385
 O     -1.236612    -0.397769    +0.812109
 H     -2.171451    -0.283500    +0.571071

 2  1  6  7 F
 1  6  7  8 F

