%nproc=1
%mem=1GB
%chk=TMP_CALCS/scangeom_S02_040_080.chk
#p hf 3-21g
   scf=tight NoSymmetry guess=read
   opt=(tight,modredundant)

Geometry optimization at the 2D-PES

0 1
 C     +0.743781    +0.589109    +0.062488
 C     +1.413351    -0.530632    -0.031343
 H     +1.191409    +1.561582    +0.078086
 H     +2.483612    -0.518296    -0.051608
 H     +0.914085    -1.476237    -0.057793
 O     -0.658914    +0.704789    +0.043411
 O     -1.255397    -0.385952    +0.814388
 H     -1.148533    -0.056434    +1.724463

 2  1  6  7 F
 1  6  7  8 F

