%nproc=1
%mem=1GB
%chk=TMP_CALCS/scangeom_S02_190_110.chk
#p hf 3-21g
   scf=tight NoSymmetry guess=read
   opt=(tight,modredundant)

Geometry optimization at the 2D-PES

0 1
 C     +0.733694    +0.636820    +0.027819
 C     +1.371636    -0.505457    -0.014031
 H     +1.193382    +1.598256    +0.098728
 H     +2.441173    -0.526867    +0.017872
 H     +0.848342    -1.438060    -0.071348
 O     -0.670383    +0.676751    +0.033668
 O     -1.074021    +2.067108    -0.158424
 H     -1.447661    +2.034325    -1.056792

 2  1  6  7 F
 1  6  7  8 F

