%nproc=1
%mem=1GB
%chk=TMP_CALCS/scangeom_S02_000_030.chk
#p hf 3-21g
   scf=tight NoSymmetry guess=read
   opt=(tight,modredundant)

Geometry optimization at the 2D-PES

0 1
 C     +0.745045    +0.566329    +0.004857
 C     +1.456295    -0.534148    -0.053898
 H     +1.173210    +1.543029    +0.090757
 H     +2.523584    -0.471574    -0.024304
 H     +1.034544    -1.507519    -0.192448
 O     -0.638145    +0.699644    +0.037203
 O     -1.340988    -0.577266    -0.001261
 H     -0.724958    -1.194771    +0.435810

 2  1  6  7 F
 1  6  7  8 F

