%nproc=1
%mem=1GB
%chk=TMP_CALCS/scangeom_S02_280_080.chk
#p hf 3-21g
   scf=tight NoSymmetry guess=read
   opt=(tight,modredundant)

Geometry optimization at the 2D-PES

0 1
 C     +0.728553    +0.612861    +0.025119
 C     +1.393675    -0.514751    -0.005295
 H     +1.193083    +1.575164    +0.069058
 H     +2.463935    -0.515278    +0.015937
 H     +0.903522    -1.468599    -0.031161
 O     -0.682400    +0.678131    +0.017685
 O     -1.176287    +0.502992    -1.355156
 H     -1.134705    -0.462533    -1.470430

 2  1  6  7 F
 1  6  7  8 F

