%nproc=1
%mem=1GB
%chk=TMP_CALCS/scangeom_S02_010_110.chk
#p hf 3-21g
   scf=tight NoSymmetry guess=read
   opt=(tight,modredundant)

Geometry optimization at the 2D-PES

0 1
 C     +0.739503    +0.571156    +0.040995
 C     +1.428143    -0.537796    -0.045550
 H     +1.169661    +1.550252    +0.088365
 H     +2.497569    -0.500232    -0.053080
 H     +0.950748    -1.490576    -0.113131
 O     -0.652792    +0.705443    +0.048941
 O     -1.284668    -0.601173    +0.182384
 H     -1.646201    -0.540801    +1.084296

 2  1  6  7 F
 1  6  7  8 F

