%nproc=1
%mem=1GB
%chk=TMP_CALCS/scangeom_S02_240_030.chk
#p hf 3-21g
   scf=tight NoSymmetry guess=read
   opt=(tight,modredundant)

Geometry optimization at the 2D-PES

0 1
 C     +0.739570    +0.636047    +0.026721
 C     +1.380024    -0.505370    -0.016150
 H     +1.206385    +1.597840    +0.078377
 H     +2.449608    -0.535322    +0.025542
 H     +0.847351    -1.433520    -0.064774
 O     -0.668120    +0.661482    +0.044832
 O     -1.129942    +1.406999    -1.140566
 H     -0.431127    +1.239136    -1.800826

 2  1  6  7 F
 1  6  7  8 F

