%nproc=1
%mem=1GB
%chk=TMP_CALCS/scangeom_S02_020_130.chk
#p hf 3-21g
   scf=tight NoSymmetry guess=read
   opt=(tight,modredundant)

Geometry optimization at the 2D-PES

0 1
 C     +0.734797    +0.574391    +0.056638
 C     +1.418078    -0.536651    -0.042410
 H     +1.171592    +1.551463    +0.087625
 H     +2.487694    -0.502405    -0.062204
 H     +0.938205    -1.490176    -0.080475
 O     -0.654602    +0.710322    +0.053736
 O     -1.267875    -0.572775    +0.397583
 H     -1.876957    -0.274825    +1.093647

 2  1  6  7 F
 1  6  7  8 F

