%nproc=1
%mem=1GB
%chk=TMP_CALCS/scangeom_S02_040_030.chk
#p hf 3-21g
   scf=tight NoSymmetry guess=read
   opt=(tight,modredundant)

Geometry optimization at the 2D-PES

0 1
 C     +0.747777    +0.591942    +0.047969
 C     +1.420344    -0.530065    -0.031403
 H     +1.193677    +1.564319    +0.070512
 H     +2.490421    -0.519670    -0.037519
 H     +0.923150    -1.476759    -0.088382
 O     -0.651986    +0.696010    +0.038241
 O     -1.264362    -0.377100    +0.829583
 H     -0.591552    -0.560753    +1.513187

 2  1  6  7 F
 1  6  7  8 F

