%nproc=1
%mem=1GB
%chk=TMP_CALCS/scangeom_S02_230_130.chk
#p hf 3-21g
   scf=tight NoSymmetry guess=read
   opt=(tight,modredundant)

Geometry optimization at the 2D-PES

0 1
 C     +0.723533    +0.638150    +0.023426
 C     +1.368222    -0.499863    -0.024334
 H     +1.181682    +1.602308    +0.064480
 H     +2.437688    -0.522935    +0.018693
 H     +0.844224    -1.432264    -0.081263
 O     -0.681184    +0.664847    +0.057047
 O     -1.092334    +1.612176    -0.990298
 H     -1.752839    +1.073530    -1.458769

 2  1  6  7 F
 1  6  7  8 F

