%nproc=1
%mem=1GB
%chk=TMP_CALCS/scangeom_S02_190_060.chk
#p hf 3-21g
   scf=tight NoSymmetry guess=read
   opt=(tight,modredundant)

Geometry optimization at the 2D-PES

0 1
 C     +0.749637    +0.635039    +0.022499
 C     +1.379052    -0.511830    -0.010522
 H     +1.232396    +1.586020    +0.115935
 H     +2.448157    -0.543604    +0.026292
 H     +0.845328    -1.438256    -0.069468
 O     -0.653865    +0.685500    +0.031024
 O     -1.102860    +2.063538    -0.169940
 H     -0.732227    +2.302844    -1.039677

 2  1  6  7 F
 1  6  7  8 F

