%nproc=1
%mem=1GB
%chk=TMP_CALCS/scangeom_S02_110_070.chk
#p hf 3-21g
   scf=tight NoSymmetry guess=read
   opt=(tight,modredundant)

Geometry optimization at the 2D-PES

0 1
 C     +0.745892    +0.625227    +0.049596
 C     +1.381676    -0.516215    +0.000844
 H     +1.230381    +1.580901    +0.099980
 H     +2.451965    -0.550700    -0.012421
 H     +0.841647    -1.439733    -0.043188
 O     -0.661307    +0.679109    -0.016669
 O     -1.179180    +1.080588    +1.301259
 H     -0.909953    +2.015654    +1.371924

 2  1  6  7 F
 1  6  7  8 F

