%nproc=1
%mem=1GB
%chk=TMP_CALCS/scangeom_S02_060_010.chk
#p hf 3-21g
   scf=tight NoSymmetry guess=read
   opt=(tight,modredundant)

Geometry optimization at the 2D-PES

0 1
 C     +0.750828    +0.605517    +0.041063
 C     +1.410282    -0.525446    -0.024482
 H     +1.212863    +1.570432    +0.070038
 H     +2.480903    -0.532923    -0.024316
 H     +0.898138    -1.465281    -0.080695
 O     -0.655332    +0.685676    +0.021458
 O     -1.243732    -0.051671    +1.156660
 H     -0.474663    -0.267636    +1.717338

 2  1  6  7 F
 1  6  7  8 F

