%nproc=1
%mem=1GB
%chk=TMP_CALCS/scangeom_S02_180_120.chk
#p hf 3-21g
   scf=tight NoSymmetry guess=read
   opt=(tight,modredundant)

Geometry optimization at the 2D-PES

0 1
 C     +0.726598    +0.635716    +0.039292
 C     +1.368512    -0.504303    -0.012442
 H     +1.183370    +1.598888    +0.098404
 H     +2.438458    -0.519759    -0.001020
 H     +0.849615    -1.439675    -0.062649
 O     -0.673957    +0.674522    +0.027466
 O     -1.063126    +2.083400    +0.095384
 H     -1.561284    +2.161648    -0.735539

 2  1  6  7 F
 1  6  7  8 F

