%nproc=1
%mem=1GB
%chk=TMP_CALCS/scangeom_S02_070_050.chk
#p hf 3-21g
   scf=tight NoSymmetry guess=read
   opt=(tight,modredundant)

Geometry optimization at the 2D-PES

0 1
 C     +0.749487    +0.610916    +0.042511
 C     +1.399140    -0.523964    -0.017697
 H     +1.219288    +1.572704    +0.077672
 H     +2.470004    -0.542740    -0.015022
 H     +0.874918    -1.457052    -0.065185
 O     -0.661502    +0.686539    +0.008096
 O     -1.227260    +0.151867    +1.260576
 H     -0.724274    +0.616453    +1.955217

 2  1  6  7 F
 1  6  7  8 F

