%nproc=1
%mem=1GB
%chk=TMP_CALCS/scangeom_S02_000_110.chk
#p hf 3-21g
   scf=tight NoSymmetry guess=read
   opt=(tight,modredundant)

Geometry optimization at the 2D-PES

0 1
 C     +0.737504    +0.571132    +0.031788
 C     +1.428668    -0.536288    -0.052679
 H     +1.166684    +1.549898    +0.093902
 H     +2.498002    -0.494585    -0.056584
 H     +0.955005    -1.489719    -0.130018
 O     -0.651711    +0.708095    +0.050584
 O     -1.282025    -0.604395    -0.040251
 H     -1.645799    -0.683064    +0.858098

 2  1  6  7 F
 1  6  7  8 F

