%nproc=1
%mem=1GB
%chk=TMP_CALCS/scangeom_S02_210_040.chk
#p hf 3-21g
   scf=tight NoSymmetry guess=read
   opt=(tight,modredundant)

Geometry optimization at the 2D-PES

0 1
 C     +0.754339    +0.635905    +0.015739
 C     +1.383235    -0.511497    -0.011787
 H     +1.237539    +1.587611    +0.113136
 H     +2.451143    -0.548511    +0.051055
 H     +0.845440    -1.434774    -0.082300
 O     -0.647954    +0.682529    +0.041564
 O     -1.125973    +1.903620    -0.622858
 H     -0.541919    +2.005937    -1.396836

 2  1  6  7 F
 1  6  7  8 F

