%nproc=1
%mem=1GB
%chk=TMP_CALCS/scangeom_S02_040_000.chk
#p hf 3-21g
   scf=tight NoSymmetry guess=read
   opt=(tight,modredundant)

Geometry optimization at the 2D-PES

0 1
 C     +0.749629    +0.587832    +0.037442
 C     +1.431992    -0.530785    -0.035154
 H     +1.196446    +1.559365    +0.066311
 H     +2.501612    -0.509121    -0.036256
 H     +0.956133    -1.487567    -0.120982
 O     -0.645041    +0.690261    +0.041784
 O     -1.287555    -0.359870    +0.845364
 H     -0.541008    -0.886976    +1.188033

 2  1  6  7 F
 1  6  7  8 F

