%nproc=1
%mem=1GB
%chk=TMP_CALCS/scangeom_S02_010_290.chk
#p hf 3-21g
   scf=tight NoSymmetry guess=read
   opt=(tight,modredundant)

Geometry optimization at the 2D-PES

0 1
 C     +0.740463    +0.568152    +0.055265
 C     +1.434643    -0.536624    -0.053175
 H     +1.170623    +1.546948    +0.100491
 H     +2.503096    -0.490852    -0.081776
 H     +0.976569    -1.501793    -0.064271
 O     -0.649082    +0.703210    +0.058026
 O     -1.301938    -0.594122    +0.155926
 H     -1.110061    -0.985976    -0.716497

 2  1  6  7 F
 1  6  7  8 F

