%nproc=1
%mem=1GB
%chk=TMP_CALCS/scangeom_S02_000_300.chk
#p hf 3-21g
   scf=tight NoSymmetry guess=read
   opt=(tight,modredundant)

Geometry optimization at the 2D-PES

0 1
 C     +0.742955    +0.565599    +0.052437
 C     +1.446728    -0.534972    -0.058931
 H     +1.171659    +1.544389    +0.106077
 H     +2.514242    -0.477143    -0.091787
 H     +1.009997    -1.511038    -0.061723
 O     -0.642498    +0.698446    +0.060228
 O     -1.324382    -0.582002    -0.075871
 H     -1.005355    -0.914642    -0.936752

 2  1  6  7 F
 1  6  7  8 F

