%nproc=1
%mem=1GB
%chk=TMP_CALCS/scangeom_S02_060_160.chk
#p hf 3-21g
   scf=tight NoSymmetry guess=read
   opt=(tight,modredundant)

Geometry optimization at the 2D-PES

0 1
 C     +0.730822    +0.607067    +0.051449
 C     +1.387001    -0.522004    -0.019125
 H     +1.195155    +1.569977    +0.101827
 H     +2.457688    -0.529399    -0.011121
 H     +0.874890    -1.461206    -0.056956
 O     -0.671443    +0.693967    +0.007625
 O     -1.199807    -0.080113    +1.147558
 H     -2.085122    +0.319292    +1.200956

 2  1  6  7 F
 1  6  7  8 F

