%nproc=1
%mem=1GB
%chk=TMP_CALCS/scangeom_S02_000_060.chk
#p hf 3-21g
   scf=tight NoSymmetry guess=read
   opt=(tight,modredundant)

Geometry optimization at the 2D-PES

0 1
 C     +0.741956    +0.572901    +0.015446
 C     +1.437406    -0.534894    -0.050877
 H     +1.170584    +1.550266    +0.093103
 H     +2.506165    -0.492071    -0.033466
 H     +0.977620    -1.492478    -0.166461
 O     -0.647313    +0.703106    +0.039394
 O     -1.300845    -0.596422    -0.020269
 H     -0.958519    -1.039575    +0.779431

 2  1  6  7 F
 1  6  7  8 F

