%nproc=1
%mem=1GB
%chk=TMP_CALCS/scangeom_S02_280_040.chk
#p hf 3-21g
   scf=tight NoSymmetry guess=read
   opt=(tight,modredundant)

Geometry optimization at the 2D-PES

0 1
 C     +0.729809    +0.622454    +0.036281
 C     +1.386610    -0.510749    -0.010818
 H     +1.195522    +1.584718    +0.066271
 H     +2.457160    -0.523284    -0.002746
 H     +0.877289    -1.454998    -0.021087
 O     -0.682029    +0.662757    +0.033020
 O     -1.165298    +0.494695    -1.349355
 H     -0.566069    -0.186200    -1.706750

 2  1  6  7 F
 1  6  7  8 F

