%nproc=1
%mem=1GB
%chk=TMP_CALCS/scangeom_S02_070_190.chk
#p hf 3-21g
   scf=tight NoSymmetry guess=read
   opt=(tight,modredundant)

Geometry optimization at the 2D-PES

0 1
 C     +0.729178    +0.613800    +0.045749
 C     +1.379220    -0.519372    -0.012870
 H     +1.198270    +1.573377    +0.108766
 H     +2.449825    -0.535775    +0.002346
 H     +0.860009    -1.454630    -0.058923
 O     -0.675376    +0.686836    -0.006882
 O     -1.184911    +0.128039    +1.262807
 H     -2.129458    +0.081087    +1.034967

 2  1  6  7 F
 1  6  7  8 F

