%nproc=1
%mem=1GB
%chk=TMP_CALCS/scangeom_S02_180_050.chk
#p hf 3-21g
   scf=tight NoSymmetry guess=read
   opt=(tight,modredundant)

Geometry optimization at the 2D-PES

0 1
 C     +0.747455    +0.634680    +0.032783
 C     +1.377062    -0.511663    -0.010290
 H     +1.230398    +1.586050    +0.114518
 H     +2.446721    -0.541766    +0.003329
 H     +0.843865    -1.438977    -0.058740
 O     -0.656653    +0.686009    +0.027312
 O     -1.097217    +2.078080    +0.081360
 H     -0.578250    +2.502831    -0.626707

 2  1  6  7 F
 1  6  7  8 F

