%nproc=1
%mem=1GB
%chk=TMP_CALCS/scangeom_S02_260_040.chk
#p hf 3-21g
   scf=tight NoSymmetry guess=read
   opt=(tight,modredundant)

Geometry optimization at the 2D-PES

0 1
 C     +0.729851    +0.631742    +0.035592
 C     +1.378233    -0.505592    -0.017687
 H     +1.193415    +1.595165    +0.061984
 H     +2.448772    -0.528008    -0.003015
 H     +0.853862    -1.440309    -0.040357
 O     -0.681366    +0.653451    +0.045003
 O     -1.134412    +0.964064    -1.323634
 H     -0.516319    +0.449015    -1.876008

 2  1  6  7 F
 1  6  7  8 F

