%nproc=1
%mem=1GB
%chk=TMP_CALCS/scangeom_S02_080_080.chk
#p hf 3-21g
   scf=tight NoSymmetry guess=read
   opt=(tight,modredundant)

Geometry optimization at the 2D-PES

0 1
 C     +0.739667    +0.617299    +0.044562
 C     +1.386341    -0.517473    -0.010106
 H     +1.213241    +1.576589    +0.101164
 H     +2.457148    -0.540079    -0.002576
 H     +0.859116    -1.448287    -0.059920
 O     -0.672437    +0.678655    -0.004271
 O     -1.195918    +0.361737    +1.333057
 H     -1.079868    +1.210450    +1.796855

 2  1  6  7 F
 1  6  7  8 F

