%nproc=1
%mem=1GB
%chk=TMP_CALCS/scangeom_S02_000_350.chk
#p hf 3-21g
   scf=tight NoSymmetry guess=read
   opt=(tight,modredundant)

Geometry optimization at the 2D-PES

0 1
 C     +0.752254    +0.551153    +0.052689
 C     +1.483805    -0.532971    -0.045784
 H     +1.176277    +1.532151    +0.103480
 H     +2.549277    -0.440497    -0.060593
 H     +1.103396    -1.533095    -0.088125
 O     -0.628870    +0.694280    +0.049668
 O     -1.391495    -0.544249    -0.082766
 H     -0.737735    -1.227346    -0.305853

 2  1  6  7 F
 1  6  7  8 F

