%nproc=1
%mem=1GB
%chk=TMP_CALCS/scangeom_S02_120_040.chk
#p hf 3-21g
   scf=tight NoSymmetry guess=read
   opt=(tight,modredundant)

Geometry optimization at the 2D-PES

0 1
 C     +0.750952    +0.626990    +0.053118
 C     +1.383376    -0.516347    +0.001218
 H     +1.240355    +1.581310    +0.089990
 H     +2.453179    -0.552731    -0.026610
 H     +0.840962    -1.438814    -0.032626
 O     -0.653346    +0.683514    -0.015456
 O     -1.174862    +1.306540    +1.211842
 H     -0.544383    +2.029409    +1.390785

 2  1  6  7 F
 1  6  7  8 F

