%nproc=1
%mem=1GB
%chk=TMP_CALCS/scangeom_S02_010_060.chk
#p hf 3-21g
   scf=tight NoSymmetry guess=read
   opt=(tight,modredundant)

Geometry optimization at the 2D-PES

0 1
 C     +0.742014    +0.571700    +0.022011
 C     +1.437969    -0.537229    -0.044624
 H     +1.172696    +1.548918    +0.086674
 H     +2.506624    -0.494907    -0.027567
 H     +0.981320    -1.497271    -0.159926
 O     -0.645945    +0.698325    +0.038536
 O     -1.307440    -0.590341    +0.206454
 H     -0.964573    -0.903290    +1.066248

 2  1  6  7 F
 1  6  7  8 F

