%nproc=1
%mem=1GB
%chk=TMP_CALCS/scangeom_S02_080_200.chk
#p hf 3-21g
   scf=tight NoSymmetry guess=read
   opt=(tight,modredundant)

Geometry optimization at the 2D-PES

0 1
 C     +0.728248    +0.617245    +0.046237
 C     +1.378994    -0.515782    -0.008809
 H     +1.197317    +1.575926    +0.116340
 H     +2.449665    -0.532753    +0.003394
 H     +0.861651    -1.452063    -0.062452
 O     -0.678512    +0.677468    -0.008083
 O     -1.178463    +0.350983    +1.343362
 H     -2.089035    +0.100779    +1.111499

 2  1  6  7 F
 1  6  7  8 F

