%nproc=1
%mem=1GB
%chk=TMP_CALCS/scangeom_S02_270_020.chk
#p hf 3-21g
   scf=tight NoSymmetry guess=read
   opt=(tight,modredundant)

Geometry optimization at the 2D-PES

0 1
 C     +0.741409    +0.629067    +0.034340
 C     +1.393296    -0.507126    -0.005403
 H     +1.209687    +1.590712    +0.082488
 H     +2.463866    -0.526386    +0.020547
 H     +0.869914    -1.441680    -0.040840
 O     -0.669098    +0.662343    +0.032514
 O     -1.170666    +0.724655    -1.360207
 H     -0.422131    +0.402518    -1.896667

 2  1  6  7 F
 1  6  7  8 F

