%nproc=1
%mem=1GB
%chk=TMP_CALCS/scangeom_S02_120_230.chk
#p hf 3-21g
   scf=tight NoSymmetry guess=read
   opt=(tight,modredundant)

Geometry optimization at the 2D-PES

0 1
 C     +0.726771    +0.632654    +0.052740
 C     +1.368531    -0.506895    +0.005749
 H     +1.187993    +1.593782    +0.124710
 H     +2.438769    -0.529795    -0.006125
 H     +0.841823    -1.437946    -0.045411
 O     -0.673978    +0.669860    -0.024544
 O     -1.124417    +1.297861    +1.229899
 H     -1.794571    +0.648720    +1.502613

 2  1  6  7 F
 1  6  7  8 F

