%nproc=1
%mem=1GB
%chk=TMP_CALCS/scangeom_S02_220_100.chk
#p hf 3-21g
   scf=tight NoSymmetry guess=read
   opt=(tight,modredundant)

Geometry optimization at the 2D-PES

0 1
 C     +0.727371    +0.639244    +0.020291
 C     +1.368734    -0.501012    -0.023717
 H     +1.185501    +1.602862    +0.069021
 H     +2.437933    -0.525468    +0.022589
 H     +0.843511    -1.432577    -0.082753
 O     -0.676876    +0.669134    +0.054870
 O     -1.089128    +1.778258    -0.812724
 H     -1.329625    +1.294333    -1.621853

 2  1  6  7 F
 1  6  7  8 F

