%nproc=1
%mem=1GB
%chk=TMP_CALCS/scangeom_S02_120_030.chk
#p hf 3-21g
   scf=tight NoSymmetry guess=read
   opt=(tight,modredundant)

Geometry optimization at the 2D-PES

0 1
 C     +0.754421    +0.626050    +0.052823
 C     +1.385291    -0.518321    +0.000490
 H     +1.245662    +1.579919    +0.083869
 H     +2.454993    -0.555985    -0.030199
 H     +0.841609    -1.440115    -0.031887
 O     -0.649465    +0.684873    -0.013848
 O     -1.180046    +1.308666    +1.211258
 H     -0.476051    +1.923449    +1.491171

 2  1  6  7 F
 1  6  7  8 F

