%nproc=1
%mem=1GB
%chk=TMP_CALCS/scangeom_S02_090_080.chk
#p hf 3-21g
   scf=tight NoSymmetry guess=read
   opt=(tight,modredundant)

Geometry optimization at the 2D-PES

0 1
 C     +0.742838    +0.620165    +0.043156
 C     +1.384378    -0.518000    -0.005770
 H     +1.221207    +1.577774    +0.099069
 H     +2.455081    -0.547237    -0.001523
 H     +0.850488    -1.444932    -0.057015
 O     -0.668852    +0.677837    -0.011299
 O     -1.193464    +0.604756    +1.361771
 H     -1.080014    +1.518187    +1.683628

 2  1  6  7 F
 1  6  7  8 F

