%nproc=1
%mem=1GB
%chk=TMP_CALCS/scangeom_S02_190_160.chk
#p hf 3-21g
   scf=tight NoSymmetry guess=read
   opt=(tight,modredundant)

Geometry optimization at the 2D-PES

0 1
 C     +0.721353    +0.635067    +0.031548
 C     +1.367428    -0.503056    -0.013821
 H     +1.176328    +1.599376    +0.089235
 H     +2.437045    -0.515936    +0.015444
 H     +0.851819    -1.439736    -0.072961
 O     -0.677280    +0.669358    +0.035414
 O     -1.057394    +2.072845    -0.153847
 H     -1.970619    +1.951819    -0.462499

 2  1  6  7 F
 1  6  7  8 F

