%nproc=1
%mem=1GB
%chk=TMP_CALCS/scangeom_S02_040_170.chk
#p hf 3-21g
   scf=tight NoSymmetry guess=read
   opt=(tight,modredundant)

Geometry optimization at the 2D-PES

0 1
 C     +0.732374    +0.590180    +0.059713
 C     +1.401012    -0.530579    -0.031517
 H     +1.183779    +1.560150    +0.091381
 H     +2.471341    -0.517614    -0.041650
 H     +0.904926    -1.477452    -0.056335
 O     -0.661721    +0.709264    +0.034674
 O     -1.233250    -0.398676    +0.814003
 H     -2.156668    -0.096407    +0.847041

 2  1  6  7 F
 1  6  7  8 F

