%nproc=1
%mem=1GB
%chk=TMP_CALCS/scangeom_S02_190_040.chk
#p hf 3-21g
   scf=tight NoSymmetry guess=read
   opt=(tight,modredundant)

Geometry optimization at the 2D-PES

0 1
 C     +0.759401    +0.632813    +0.022497
 C     +1.383022    -0.517279    -0.007528
 H     +1.257882    +1.576726    +0.118933
 H     +2.451657    -0.555207    +0.034661
 H     +0.843431    -1.439899    -0.070311
 O     -0.641660    +0.691553    +0.026935
 O     -1.120916    +2.062133    -0.174873
 H     -0.525675    +2.436903    -0.849561

 2  1  6  7 F
 1  6  7  8 F

