%nproc=1
%mem=1GB
%chk=TMP_CALCS/scangeom_S02_090_150.chk
#p hf 3-21g
   scf=tight NoSymmetry guess=read
   opt=(tight,modredundant)

Geometry optimization at the 2D-PES

0 1
 C     +0.727962    +0.623347    +0.039297
 C     +1.372182    -0.513583    -0.002566
 H     +1.198212    +1.580913    +0.123076
 H     +2.442695    -0.538543    +0.016292
 H     +0.843666    -1.442979    -0.062365
 O     -0.679411    +0.670162    -0.023865
 O     -1.159413    +0.594268    +1.370587
 H     -1.982704    +1.105458    +1.286810

 2  1  6  7 F
 1  6  7  8 F

