%nproc=1
%mem=1GB
%chk=TMP_CALCS/scangeom_S02_040_200.chk
#p hf 3-21g
   scf=tight NoSymmetry guess=read
   opt=(tight,modredundant)

Geometry optimization at the 2D-PES

0 1
 C     +0.733880    +0.588310    +0.062277
 C     +1.404560    -0.530869    -0.033414
 H     +1.183519    +1.558928    +0.092514
 H     +2.474671    -0.515834    -0.050191
 H     +0.911465    -1.479332    -0.049152
 O     -0.661058    +0.709000    +0.038326
 O     -1.240583    -0.396893    +0.810755
 H     -2.141453    -0.387913    +0.445494

 2  1  6  7 F
 1  6  7  8 F

