%nproc=1
%mem=1GB
%chk=TMP_CALCS/scangeom_S02_220_010.chk
#p hf 3-21g
   scf=tight NoSymmetry guess=read
   opt=(tight,modredundant)

Geometry optimization at the 2D-PES

0 1
 C     +0.756082    +0.635165    +0.016275
 C     +1.384906    -0.512303    -0.011664
 H     +1.240069    +1.587479    +0.108583
 H     +2.452578    -0.551787    +0.055868
 H     +0.844702    -1.434110    -0.083092
 O     -0.646570    +0.680622    +0.041963
 O     -1.137137    +1.768670    -0.822494
 H     -0.350995    +2.069828    -1.314233

 2  1  6  7 F
 1  6  7  8 F

