%nproc=1
%mem=1GB
%chk=TMP_CALCS/scangeom_S02_020_240.chk
#p hf 3-21g
   scf=tight NoSymmetry guess=read
   opt=(tight,modredundant)

Geometry optimization at the 2D-PES

0 1
 C     +0.737946    +0.572116    +0.057637
 C     +1.425453    -0.536113    -0.047554
 H     +1.171779    +1.549753    +0.095512
 H     +2.494512    -0.498620    -0.073700
 H     +0.953771    -1.494339    -0.062111
 O     -0.653246    +0.707082    +0.055257
 O     -1.281961    -0.566201    +0.388777
 H     -1.810112    -0.725103    -0.413032

 2  1  6  7 F
 1  6  7  8 F

