%nproc=1
%mem=1GB
%chk=TMP_CALCS/scangeom_S02_050_170.chk
#p hf 3-21g
   scf=tight NoSymmetry guess=read
   opt=(tight,modredundant)

Geometry optimization at the 2D-PES

0 1
 C     +0.732602    +0.598026    +0.056801
 C     +1.394100    -0.527347    -0.024477
 H     +1.191879    +1.564244    +0.093034
 H     +2.464731    -0.525438    -0.025978
 H     +0.889317    -1.470340    -0.054616
 O     -0.666249    +0.702745    +0.021670
 O     -1.220983    -0.253864    +0.994266
 H     -2.147698    +0.040638    +0.983190

 2  1  6  7 F
 1  6  7  8 F

