%nproc=1
%mem=1GB
%chk=TMP_CALCS/scangeom_S02_020_220.chk
#p hf 3-21g
   scf=tight NoSymmetry guess=read
   opt=(tight,modredundant)

Geometry optimization at the 2D-PES

0 1
 C     +0.735423    +0.573345    +0.053143
 C     +1.420784    -0.536597    -0.046452
 H     +1.170563    +1.550313    +0.095772
 H     +2.490176    -0.501230    -0.065900
 H     +0.943628    -1.491560    -0.071156
 O     -0.654511    +0.709298    +0.051155
 O     -1.271892    -0.569988    +0.394221
 H     -2.021634    -0.566031    -0.224690

 2  1  6  7 F
 1  6  7  8 F

