%nproc=1
%mem=1GB
%chk=TMP_CALCS/scangeom_S02_030_110.chk
#p hf 3-21g
   scf=tight NoSymmetry guess=read
   opt=(tight,modredundant)

Geometry optimization at the 2D-PES

0 1
 C     +0.741053    +0.579767    +0.061442
 C     +1.418358    -0.535061    -0.035325
 H     +1.181383    +1.555497    +0.080657
 H     +2.488259    -0.511265    -0.056742
 H     +0.928384    -1.484482    -0.067317
 O     -0.656871    +0.705921    +0.049336
 O     -1.268096    -0.495791    +0.612094
 H     -1.615116    -0.148137    +1.452291

 2  1  6  7 F
 1  6  7  8 F

