%nproc=1
%mem=1GB
%chk=TMP_CALCS/scangeom_S02_260_050.chk
#p hf 3-21g
   scf=tight NoSymmetry guess=read
   opt=(tight,modredundant)

Geometry optimization at the 2D-PES

0 1
 C     +0.726805    +0.631347    +0.035171
 C     +1.375764    -0.505303    -0.019861
 H     +1.188976    +1.595206    +0.057585
 H     +2.446318    -0.526911    -0.007944
 H     +0.853127    -1.441131    -0.040287
 O     -0.684936    +0.653497    +0.046744
 O     -1.128471    +0.965449    -1.322946
 H     -0.619142    +0.326816    -1.856344

 2  1  6  7 F
 1  6  7  8 F

