%nproc=1
%mem=1GB
%chk=TMP_CALCS/scangeom_S02_050_070.chk
#p hf 3-21g
   scf=tight NoSymmetry guess=read
   opt=(tight,modredundant)

Geometry optimization at the 2D-PES

0 1
 C     +0.747227    +0.598114    +0.054684
 C     +1.409147    -0.528132    -0.025475
 H     +1.201947    +1.567019    +0.074696
 H     +2.479735    -0.529521    -0.034226
 H     +0.898803    -1.468643    -0.060970
 O     -0.659650    +0.697759    +0.029552
 O     -1.246737    -0.236947    +0.995858
 H     -1.000087    +0.159951    +1.851850

 2  1  6  7 F
 1  6  7  8 F

