%nproc=1
%mem=1GB
%chk=TMP_CALCS/scangeom_S02_230_100.chk
#p hf 3-21g
   scf=tight NoSymmetry guess=read
   opt=(tight,modredundant)

Geometry optimization at the 2D-PES

0 1
 C     +0.728349    +0.638341    +0.024415
 C     +1.371294    -0.500949    -0.023095
 H     +1.185624    +1.602949    +0.067970
 H     +2.440819    -0.526033    +0.018498
 H     +0.845167    -1.432589    -0.075749
 O     -0.678810    +0.663702    +0.054099
 O     -1.099739    +1.607810    -0.987768
 H     -1.339506    +1.001122    -1.711323

 2  1  6  7 F
 1  6  7  8 F

