%nproc=1
%mem=1GB
%chk=TMP_CALCS/scangeom_S02_150_050.chk
#p hf 3-21g
   scf=tight NoSymmetry guess=read
   opt=(tight,modredundant)

Geometry optimization at the 2D-PES

0 1
 C     +0.760699    +0.630972    +0.062984
 C     +1.381504    -0.518876    +0.003244
 H     +1.267605    +1.576128    +0.090933
 H     +2.450462    -0.560451    -0.029877
 H     +0.834750    -1.438854    -0.024593
 O     -0.637496    +0.699820    -0.015597
 O     -1.150677    +1.848417    +0.738952
 H     -0.613729    +2.600284    +0.426750

 2  1  6  7 F
 1  6  7  8 F

