%nproc=1
%mem=1GB
%chk=TMP_CALCS/scangeom_S02_190_010.chk
#p hf 3-21g
   scf=tight NoSymmetry guess=read
   opt=(tight,modredundant)

Geometry optimization at the 2D-PES

0 1
 C     +0.768438    +0.630229    +0.025745
 C     +1.386262    -0.522953    -0.003933
 H     +1.283165    +1.567612    +0.111506
 H     +2.454258    -0.566917    +0.045659
 H     +0.841323    -1.441700    -0.074297
 O     -0.629939    +0.698238    +0.021472
 O     -1.137347    +2.060535    -0.177085
 H     -0.361585    +2.595614    -0.423766

 2  1  6  7 F
 1  6  7  8 F

