%nproc=1
%mem=1GB
%chk=TMP_CALCS/scangeom_S02_010_180.chk
#p hf 3-21g
   scf=tight NoSymmetry guess=read
   opt=(tight,modredundant)

Geometry optimization at the 2D-PES

0 1
 C     +0.731255    +0.571834    +0.043258
 C     +1.417338    -0.538364    -0.048327
 H     +1.165896    +1.548868    +0.094929
 H     +2.486912    -0.500170    -0.057787
 H     +0.941412    -1.492653    -0.101052
 O     -0.653746    +0.711803    +0.049338
 O     -1.267376    -0.611088    +0.175284
 H     -2.201291    -0.343847    +0.164000

 2  1  6  7 F
 1  6  7  8 F

