%nproc=1
%mem=1GB
%chk=TMP_CALCS/scangeom_S02_030_130.chk
#p hf 3-21g
   scf=tight NoSymmetry guess=read
   opt=(tight,modredundant)

Geometry optimization at the 2D-PES

0 1
 C     +0.737934    +0.578970    +0.063548
 C     +1.415525    -0.535319    -0.035846
 H     +1.179582    +1.554209    +0.083362
 H     +2.485418    -0.509739    -0.058132
 H     +0.928108    -1.486092    -0.064274
 O     -0.657258    +0.707573    +0.050084
 O     -1.264929    -0.499608    +0.610002
 H     -1.873446    -0.099038    +1.253934

 2  1  6  7 F
 1  6  7  8 F

