%nproc=1
%mem=1GB
%chk=TMP_CALCS/scangeom_S02_250_030.chk
#p hf 3-21g
   scf=tight NoSymmetry guess=read
   opt=(tight,modredundant)

Geometry optimization at the 2D-PES

0 1
 C     +0.743823    +0.634271    +0.030899
 C     +1.387177    -0.505798    -0.010216
 H     +1.214371    +1.594856    +0.086501
 H     +2.456968    -0.534046    +0.031317
 H     +0.855383    -1.434460    -0.059043
 O     -0.664690    +0.661678    +0.040409
 O     -1.150230    +1.191432    -1.252900
 H     -0.464476    +0.923295    -1.892992

 2  1  6  7 F
 1  6  7  8 F

