%nproc=1
%mem=1GB
%chk=TMP_CALCS/scangeom_S02_230_040.chk
#p hf 3-21g
   scf=tight NoSymmetry guess=read
   opt=(tight,modredundant)

Geometry optimization at the 2D-PES

0 1
 C     +0.747560    +0.636856    +0.022283
 C     +1.383592    -0.506801    -0.013181
 H     +1.220394    +1.595311    +0.096126
 H     +2.452229    -0.540582    +0.044037
 H     +0.847905    -1.432078    -0.075854
 O     -0.657727    +0.669728    +0.043892
 O     -1.134790    +1.600426    -0.995592
 H     -0.543539    +1.434934    -1.753633

 2  1  6  7 F
 1  6  7  8 F

