%nproc=1
%mem=1GB
%chk=TMP_CALCS/scangeom_S02_010_320.chk
#p hf 3-21g
   scf=tight NoSymmetry guess=read
   opt=(tight,modredundant)

Geometry optimization at the 2D-PES

0 1
 C     +0.743513    +0.560481    +0.064047
 C     +1.452463    -0.536308    -0.051286
 H     +1.173341    +1.539637    +0.100287
 H     +2.519299    -0.469828    -0.090142
 H     +1.031634    -1.519588    -0.047271
 O     -0.640956    +0.700021    +0.061996
 O     -1.340791    -0.575295    +0.142666
 H     -0.816037    -1.160382    -0.434935

 2  1  6  7 F
 1  6  7  8 F

