%nproc=1
%mem=1GB
%chk=TMP_CALCS/scangeom_S02_090_020.chk
#p hf 3-21g
   scf=tight NoSymmetry guess=read
   opt=(tight,modredundant)

Geometry optimization at the 2D-PES

0 1
 C     +0.752741    +0.618973    +0.036213
 C     +1.392298    -0.523046    -0.009684
 H     +1.232609    +1.575844    +0.080575
 H     +2.463030    -0.553070    -0.009428
 H     +0.857881    -1.450012    -0.064708
 O     -0.657069    +0.675759    -0.005335
 O     -1.211371    +0.615828    +1.367166
 H     -0.467156    +0.877083    +1.940905

 2  1  6  7 F
 1  6  7  8 F

