%nproc=1
%mem=1GB
%chk=TMP_CALCS/scangeom_S02_220_060.chk
#p hf 3-21g
   scf=tight NoSymmetry guess=read
   opt=(tight,modredundant)

Geometry optimization at the 2D-PES

0 1
 C     +0.735967    +0.638906    +0.019767
 C     +1.373753    -0.503540    -0.020587
 H     +1.197116    +1.601633    +0.079054
 H     +2.442870    -0.532281    +0.026700
 H     +0.843798    -1.432613    -0.077507
 O     -0.670136    +0.669771    +0.050459
 O     -1.102560    +1.771641    -0.814285
 H     -0.734942    +1.515060    -1.680437

 2  1  6  7 F
 1  6  7  8 F

