%nproc=1
%mem=1GB
%chk=TMP_CALCS/scangeom_S02_000_150.chk
#p hf 3-21g
   scf=tight NoSymmetry guess=read
   opt=(tight,modredundant)

Geometry optimization at the 2D-PES

0 1
 C     +0.732658    +0.572283    +0.033365
 C     +1.421486    -0.536496    -0.054456
 H     +1.164945    +1.549620    +0.097586
 H     +2.490949    -0.495327    -0.060805
 H     +0.947798    -1.490723    -0.121896
 O     -0.652231    +0.711773    +0.051446
 O     -1.270312    -0.610435    -0.045492
 H     -2.084845    -0.433645    +0.453514

 2  1  6  7 F
 1  6  7  8 F

