%nproc=1
%mem=1GB
%chk=TMP_CALCS/scangeom_S02_040_140.chk
#p hf 3-21g
   scf=tight NoSymmetry guess=read
   opt=(tight,modredundant)

Geometry optimization at the 2D-PES

0 1
 C     +0.734195    +0.589118    +0.062039
 C     +1.403761    -0.530630    -0.031142
 H     +1.185203    +1.559749    +0.088314
 H     +2.474118    -0.516282    -0.044171
 H     +0.908894    -1.478370    -0.057762
 O     -0.661171    +0.707616    +0.038348
 O     -1.240017    -0.397342    +0.814200
 H     -1.954991    +0.086970    +1.260586

 2  1  6  7 F
 1  6  7  8 F

