%nproc=1
%mem=1GB
%chk=TMP_CALCS/scangeom_S02_130_100.chk
#p hf 3-21g
   scf=tight NoSymmetry guess=read
   opt=(tight,modredundant)

Geometry optimization at the 2D-PES

0 1
 C     +0.740152    +0.633334    +0.056190
 C     +1.374078    -0.509241    +0.003628
 H     +1.218535    +1.589253    +0.115751
 H     +2.443913    -0.541972    -0.018426
 H     +0.835424    -1.433738    -0.033722
 O     -0.663398    +0.679002    -0.019341
 O     -1.137951    +1.507278    +1.094849
 H     -1.303935    +2.358360    +0.650611

 2  1  6  7 F
 1  6  7  8 F

