%nproc=1
%mem=1GB
%chk=TMP_CALCS/scangeom_S02_060_230.chk
#p hf 3-21g
   scf=tight NoSymmetry guess=read
   opt=(tight,modredundant)

Geometry optimization at the 2D-PES

0 1
 C     +0.734937    +0.600252    +0.058856
 C     +1.399265    -0.523530    -0.022821
 H     +1.196577    +1.564398    +0.099329
 H     +2.469756    -0.521357    -0.030320
 H     +0.903912    -1.472483    -0.053432
 O     -0.669577    +0.693888    +0.022568
 O     -1.227943    -0.074524    +1.143585
 H     -1.890757    -0.608392    +0.673356

 2  1  6  7 F
 1  6  7  8 F

