%nproc=1
%mem=1GB
%chk=TMP_CALCS/scangeom_S02_160_070.chk
#p hf 3-21g
   scf=tight NoSymmetry guess=read
   opt=(tight,modredundant)

Geometry optimization at the 2D-PES

0 1
 C     +0.744391    +0.636042    +0.051495
 C     +1.374712    -0.509141    -0.003960
 H     +1.224886    +1.589784    +0.111053
 H     +2.444355    -0.539073    -0.022304
 H     +0.840009    -1.436159    -0.037764
 O     -0.658758    +0.686280    +0.001607
 O     -1.101597    +1.966943    +0.548443
 H     -0.810638    +2.592910    -0.139728

 2  1  6  7 F
 1  6  7  8 F

