%nproc=1
%mem=1GB
%chk=TMP_CALCS/scangeom_S02_060_250.chk
#p hf 3-21g
   scf=tight NoSymmetry guess=read
   opt=(tight,modredundant)

Geometry optimization at the 2D-PES

0 1
 C     +0.736724    +0.597894    +0.058033
 C     +1.404998    -0.523983    -0.023338
 H     +1.198418    +1.561922    +0.099308
 H     +2.475391    -0.516846    -0.030330
 H     +0.919545    -1.478212    -0.063175
 O     -0.669035    +0.692365    +0.025129
 O     -1.240098    -0.068439    +1.141733
 H     -1.650897    -0.814155    +0.671419

 2  1  6  7 F
 1  6  7  8 F

