%nproc=1
%mem=1GB
%chk=TMP_CALCS/scangeom_S02_140_050.chk
#p hf 3-21g
   scf=tight NoSymmetry guess=read
   opt=(tight,modredundant)

Geometry optimization at the 2D-PES

0 1
 C     +0.751376    +0.632167    +0.060147
 C     +1.379388    -0.513525    +0.002190
 H     +1.244926    +1.583308    +0.096015
 H     +2.448587    -0.550327    -0.033565
 H     +0.836760    -1.436031    -0.024120
 O     -0.649822    +0.689782    -0.014388
 O     -1.146464    +1.692978    +0.933048
 H     -0.600243    +2.476299    +0.733933

 2  1  6  7 F
 1  6  7  8 F

