%nproc=1
%mem=1GB
%chk=TMP_CALCS/scangeom_S02_200_130.chk
#p hf 3-21g
   scf=tight NoSymmetry guess=read
   opt=(tight,modredundant)

Geometry optimization at the 2D-PES

0 1
 C     +0.722902    +0.637506    +0.025112
 C     +1.366751    -0.501712    -0.019556
 H     +1.179534    +1.601240    +0.080619
 H     +2.436168    -0.518750    +0.017357
 H     +0.847747    -1.436456    -0.080217
 O     -0.676706    +0.670833    +0.051411
 O     -1.067056    +2.015961    -0.384088
 H     -1.722677    +1.785472    -1.063334

 2  1  6  7 F
 1  6  7  8 F

