%nproc=1
%mem=1GB
%chk=TMP_CALCS/scangeom_S02_080_030.chk
#p hf 3-21g
   scf=tight NoSymmetry guess=read
   opt=(tight,modredundant)

Geometry optimization at the 2D-PES

0 1
 C     +0.749218    +0.615497    +0.040018
 C     +1.395463    -0.521169    -0.013991
 H     +1.223153    +1.575599    +0.081248
 H     +2.466365    -0.544696    -0.012184
 H     +0.866703    -1.451498    -0.063208
 O     -0.662689    +0.680317    +0.000777
 O     -1.213924    +0.374107    +1.335186
 H     -0.522073    +0.684531    +1.948649

 2  1  6  7 F
 1  6  7  8 F

