%nproc=1
%mem=1GB
%chk=TMP_CALCS/scangeom_S02_230_050.chk
#p hf 3-21g
   scf=tight NoSymmetry guess=read
   opt=(tight,modredundant)

Geometry optimization at the 2D-PES

0 1
 C     +0.743118    +0.637579    +0.023118
 C     +1.380786    -0.505160    -0.015538
 H     +1.211503    +1.598067    +0.089210
 H     +2.449765    -0.536899    +0.036055
 H     +0.846987    -1.431893    -0.074005
 O     -0.662861    +0.667065    +0.046209
 O     -1.126919    +1.600960    -0.993654
 H     -0.640727    +1.318317    -1.791030

 2  1  6  7 F
 1  6  7  8 F

