%nproc=1
%mem=1GB
%chk=TMP_CALCS/scangeom_S02_090_240.chk
#p hf 3-21g
   scf=tight NoSymmetry guess=read
   opt=(tight,modredundant)

Geometry optimization at the 2D-PES

0 1
 C     +0.727945    +0.620447    +0.042771
 C     +1.375692    -0.515033    -0.003331
 H     +1.197803    +1.577737    +0.120890
 H     +2.446277    -0.535594    +0.010879
 H     +0.856624    -1.449990    -0.068099
 O     -0.680308    +0.672511    -0.015829
 O     -1.168781    +0.595707    +1.374852
 H     -1.702238    -0.214759    +1.312582

 2  1  6  7 F
 1  6  7  8 F

