%nproc=1
%mem=1GB
%chk=TMP_CALCS/scangeom_S02_180_060.chk
#p hf 3-21g
   scf=tight NoSymmetry guess=read
   opt=(tight,modredundant)

Geometry optimization at the 2D-PES

0 1
 C     +0.743636    +0.635534    +0.033061
 C     +1.375390    -0.509635    -0.011224
 H     +1.219715    +1.589833    +0.113032
 H     +2.445142    -0.537210    +0.002048
 H     +0.844760    -1.438471    -0.059603
 O     -0.661096    +0.683925    +0.028417
 O     -1.089557    +2.078679    +0.083966
 H     -0.693383    +2.455609    -0.723350

 2  1  6  7 F
 1  6  7  8 F

