%nproc=1
%mem=1GB
%chk=TMP_CALCS/scangeom_S02_260_100.chk
#p hf 3-21g
   scf=tight NoSymmetry guess=read
   opt=(tight,modredundant)

Geometry optimization at the 2D-PES

0 1
 C     +0.721775    +0.625791    +0.031391
 C     +1.375991    -0.506891    -0.018681
 H     +1.185582    +1.588607    +0.055929
 H     +2.446612    -0.521942    -0.007979
 H     +0.863988    -1.448552    -0.042867
 O     -0.691069    +0.662188    +0.041350
 O     -1.127170    +0.973639    -1.329318
 H     -1.366141    +0.088098    -1.655622

 2  1  6  7 F
 1  6  7  8 F

