%nproc=1
%mem=1GB
%chk=TMP_CALCS/scangeom_S02_020_310.chk
#p hf 3-21g
   scf=tight NoSymmetry guess=read
   opt=(tight,modredundant)

Geometry optimization at the 2D-PES

0 1
 C     +0.747430    +0.555688    +0.067302
 C     +1.466648    -0.534796    -0.044668
 H     +1.177956    +1.534828    +0.094917
 H     +2.532745    -0.455262    -0.080806
 H     +1.068858    -1.528527    -0.060334
 O     -0.637242    +0.697620    +0.061916
 O     -1.367408    -0.527591    +0.370178
 H     -0.979912    -1.197263    -0.219512

 2  1  6  7 F
 1  6  7  8 F

