%nproc=1
%mem=1GB
%chk=TMP_CALCS/scangeom_S02_130_110.chk
#p hf 3-21g
   scf=tight NoSymmetry guess=read
   opt=(tight,modredundant)

Geometry optimization at the 2D-PES

0 1
 C     +0.737558    +0.633938    +0.055085
 C     +1.372579    -0.508190    +0.003573
 H     +1.211851    +1.590940    +0.119475
 H     +2.442484    -0.539492    -0.016507
 H     +0.835344    -1.433474    -0.034892
 O     -0.665728    +0.676776    -0.020060
 O     -1.131462    +1.507217    +1.096727
 H     -1.450466    +2.296763    +0.624621

 2  1  6  7 F
 1  6  7  8 F

