%nproc=1
%mem=1GB
%chk=TMP_CALCS/scangeom_S02_120_210.chk
#p hf 3-21g
   scf=tight NoSymmetry guess=read
   opt=(tight,modredundant)

Geometry optimization at the 2D-PES

0 1
 C     +0.725486    +0.631455    +0.048609
 C     +1.369460    -0.506725    +0.004838
 H     +1.187267    +1.592054    +0.126639
 H     +2.439893    -0.529229    -0.000459
 H     +0.843772    -1.438156    -0.050817
 O     -0.677378    +0.666891    -0.025085
 O     -1.124551    +1.300671    +1.229822
 H     -1.985120    +0.860156    +1.331879

 2  1  6  7 F
 1  6  7  8 F

