%nproc=1
%mem=1GB
%chk=TMP_CALCS/scangeom_S02_100_130.chk
#p hf 3-21g
   scf=tight NoSymmetry guess=read
   opt=(tight,modredundant)

Geometry optimization at the 2D-PES

0 1
 C     +0.726563    +0.627499    +0.041179
 C     +1.370835    -0.509580    +0.000577
 H     +1.193420    +1.586067    +0.128682
 H     +2.441381    -0.534604    +0.012774
 H     +0.841373    -1.438440    -0.058090
 O     -0.679673    +0.665492    -0.026522
 O     -1.146442    +0.833204    +1.363857
 H     -1.758754    +1.578814    +1.241412

 2  1  6  7 F
 1  6  7  8 F

