%nproc=1
%mem=1GB
%chk=TMP_CALCS/scangeom_S02_090_100.chk
#p hf 3-21g
   scf=tight NoSymmetry guess=read
   opt=(tight,modredundant)

Geometry optimization at the 2D-PES

0 1
 C     +0.738305    +0.621417    +0.042938
 C     +1.380529    -0.516167    -0.004649
 H     +1.214888    +1.578774    +0.107983
 H     +2.451184    -0.544287    +0.003592
 H     +0.848060    -1.443722    -0.058314
 O     -0.672952    +0.675235    -0.014010
 O     -1.183622    +0.600247    +1.363729
 H     -1.374626    +1.535997    +1.556011

 2  1  6  7 F
 1  6  7  8 F

