%nproc=1
%mem=1GB
%chk=TMP_CALCS/scangeom_S02_130_070.chk
#p hf 3-21g
   scf=tight NoSymmetry guess=read
   opt=(tight,modredundant)

Geometry optimization at the 2D-PES

0 1
 C     +0.749527    +0.630245    +0.059354
 C     +1.379409    -0.514326    +0.003823
 H     +1.240625    +1.582880    +0.100216
 H     +2.448932    -0.551494    -0.026382
 H     +0.836336    -1.436380    -0.028857
 O     -0.652864    +0.687110    -0.017603
 O     -1.159928    +1.510120    +1.088007
 H     -0.875055    +2.410821    +0.844353

 2  1  6  7 F
 1  6  7  8 F

