%nproc=1
%mem=1GB
%chk=TMP_CALCS/scangeom_S02_060_100.chk
#p hf 3-21g
   scf=tight NoSymmetry guess=read
   opt=(tight,modredundant)

Geometry optimization at the 2D-PES

0 1
 C     +0.739324    +0.604710    +0.055237
 C     +1.396062    -0.523193    -0.020657
 H     +1.203891    +1.568912    +0.091942
 H     +2.466912    -0.529743    -0.023370
 H     +0.883365    -1.462388    -0.055639
 O     -0.668260    +0.693373    +0.018186
 O     -1.221204    -0.071111    +1.144467
 H     -1.407757    +0.647601    +1.773376

 2  1  6  7 F
 1  6  7  8 F

