%nproc=1
%mem=1GB
%chk=TMP_CALCS/scangeom_S02_130_040.chk
#p hf 3-21g
   scf=tight NoSymmetry guess=read
   opt=(tight,modredundant)

Geometry optimization at the 2D-PES

0 1
 C     +0.760399    +0.627173    +0.060042
 C     +1.384739    -0.520763    +0.003012
 H     +1.259357    +1.577577    +0.082388
 H     +2.453882    -0.562740    -0.034762
 H     +0.836982    -1.440203    -0.025909
 O     -0.640246    +0.692820    -0.014106
 O     -1.177289    +1.515429    +1.083898
 H     -0.554372    +2.262048    +1.160554

 2  1  6  7 F
 1  6  7  8 F

