%nproc=1
%mem=1GB
%chk=TMP_CALCS/scangeom_S02_030_150.chk
#p hf 3-21g
   scf=tight NoSymmetry guess=read
   opt=(tight,modredundant)

Geometry optimization at the 2D-PES

0 1
 C     +0.734783    +0.579486    +0.062506
 C     +1.411932    -0.535271    -0.035926
 H     +1.177712    +1.554015    +0.085976
 H     +2.481891    -0.509738    -0.055151
 H     +0.925524    -1.486568    -0.064641
 O     -0.657688    +0.708759    +0.047946
 O     -1.258709    -0.503521    +0.610184
 H     -2.066724    -0.117724    +0.988146

 2  1  6  7 F
 1  6  7  8 F

