%nproc=1
%mem=1GB
%chk=TMP_CALCS/scangeom_S02_180_080.chk
#p hf 3-21g
   scf=tight NoSymmetry guess=read
   opt=(tight,modredundant)

Geometry optimization at the 2D-PES

0 1
 C     +0.737557    +0.636424    +0.034681
 C     +1.372605    -0.507022    -0.012338
 H     +1.203485    +1.595106    +0.108183
 H     +2.442470    -0.530402    +0.000588
 H     +0.846234    -1.438308    -0.061044
 O     -0.667069    +0.680772    +0.028890
 O     -1.078142    +2.079896    +0.088442
 H     -0.969400    +2.356510    -0.839246

 2  1  6  7 F
 1  6  7  8 F

