%nproc=1
%mem=1GB
%chk=TMP_CALCS/scangeom_S02_230_090.chk
#p hf 3-21g
   scf=tight NoSymmetry guess=read
   opt=(tight,modredundant)

Geometry optimization at the 2D-PES

0 1
 C     +0.730312    +0.638407    +0.024602
 C     +1.372532    -0.501406    -0.022280
 H     +1.188107    +1.602957    +0.070152
 H     +2.442052    -0.527374    +0.019275
 H     +0.845283    -1.432473    -0.074193
 O     -0.677132    +0.663395    +0.053018
 O     -1.103098    +1.606201    -0.987753
 H     -1.186442    +1.022220    -1.763850

 2  1  6  7 F
 1  6  7  8 F

