%nproc=1
%mem=1GB
%chk=TMP_CALCS/scangeom_S02_050_020.chk
#p hf 3-21g
   scf=tight NoSymmetry guess=read
   opt=(tight,modredundant)

Geometry optimization at the 2D-PES

0 1
 C     +0.749819    +0.596309    +0.039858
 C     +1.419356    -0.529865    -0.028048
 H     +1.205539    +1.563867    +0.067289
 H     +2.489525    -0.524757    -0.027650
 H     +0.923385    -1.477681    -0.099910
 O     -0.650347    +0.687605    +0.031619
 O     -1.266863    -0.220941    +1.014690
 H     -0.543320    -0.415689    +1.640434

 2  1  6  7 F
 1  6  7  8 F

