%nproc=1
%mem=1GB
%chk=TMP_CALCS/scangeom_S02_270_080.chk
#p hf 3-21g
   scf=tight NoSymmetry guess=read
   opt=(tight,modredundant)

Geometry optimization at the 2D-PES

0 1
 C     +0.724118    +0.626989    +0.035077
 C     +1.377783    -0.506755    -0.018317
 H     +1.187242    +1.590319    +0.056490
 H     +2.448400    -0.522961    -0.012006
 H     +0.863735    -1.447875    -0.033154
 O     -0.688899    +0.657625    +0.042393
 O     -1.137742    +0.729873    -1.357746
 H     -1.061951    -0.199458    -1.641478

 2  1  6  7 F
 1  6  7  8 F

