%nproc=1
%mem=1GB
%chk=TMP_CALCS/scangeom_S02_040_240.chk
#p hf 3-21g
   scf=tight NoSymmetry guess=read
   opt=(tight,modredundant)

Geometry optimization at the 2D-PES

0 1
 C     +0.738240    +0.583107    +0.068778
 C     +1.416257    -0.530986    -0.035847
 H     +1.185021    +1.555114    +0.090594
 H     +2.485771    -0.507358    -0.064467
 H     +0.939337    -1.488440    -0.041218
 O     -0.658605    +0.705654    +0.048277
 O     -1.266330    -0.389209    +0.803830
 H     -1.807082    -0.811187    +0.113792

 2  1  6  7 F
 1  6  7  8 F

