%nproc=1
%mem=1GB
%chk=TMP_CALCS/scangeom_S02_130_140.chk
#p hf 3-21g
   scf=tight NoSymmetry guess=read
   opt=(tight,modredundant)

Geometry optimization at the 2D-PES

0 1
 C     +0.730805    +0.634355    +0.052745
 C     +1.369076    -0.506489    +0.003891
 H     +1.195211    +1.594304    +0.126570
 H     +2.439134    -0.533585    -0.011941
 H     +0.836094    -1.434121    -0.037401
 O     -0.670295    +0.671876    -0.023428
 O     -1.116214    +1.508072    +1.100767
 H     -1.832304    +2.003560    +0.668371

 2  1  6  7 F
 1  6  7  8 F

