%nproc=1
%mem=1GB
%chk=TMP_CALCS/scangeom_S02_060_080.chk
#p hf 3-21g
   scf=tight NoSymmetry guess=read
   opt=(tight,modredundant)

Geometry optimization at the 2D-PES

0 1
 C     +0.743145    +0.604912    +0.055021
 C     +1.399257    -0.523517    -0.021130
 H     +1.206867    +1.569778    +0.086108
 H     +2.470108    -0.531629    -0.026473
 H     +0.884291    -1.461595    -0.054510
 O     -0.666549    +0.693706    +0.019816
 O     -1.226304    -0.066802    +1.143231
 H     -1.111990    +0.561614    +1.878366

 2  1  6  7 F
 1  6  7  8 F

