%nproc=1
%mem=1GB
%chk=TMP_CALCS/scangeom_S02_280_030.chk
#p hf 3-21g
   scf=tight NoSymmetry guess=read
   opt=(tight,modredundant)

Geometry optimization at the 2D-PES

0 1
 C     +0.732406    +0.623354    +0.036907
 C     +1.388928    -0.510496    -0.009100
 H     +1.198337    +1.585604    +0.069919
 H     +2.459502    -0.523673    +0.000646
 H     +0.877081    -1.453242    -0.020994
 O     -0.678700    +0.661994    +0.031979
 O     -1.169887    +0.493339    -1.349625
 H     -0.481420    -0.059672    -1.763671

 2  1  6  7 F
 1  6  7  8 F

