%nproc=1
%mem=1GB
%chk=TMP_CALCS/scangeom_S02_070_270.chk
#p hf 3-21g
   scf=tight NoSymmetry guess=read
   opt=(tight,modredundant)

Geometry optimization at the 2D-PES

0 1
 C     +0.734490    +0.606667    +0.048159
 C     +1.394069    -0.521489    -0.016089
 H     +1.202332    +1.566644    +0.106405
 H     +2.464630    -0.526778    -0.008325
 H     +0.896498    -1.468908    -0.075591
 O     -0.674480    +0.685192    +0.007357
 O     -1.217108    +0.138678    +1.258835
 H     -1.322453    -0.798581    +1.021336

 2  1  6  7 F
 1  6  7  8 F

