%nproc=1
%mem=1GB
%chk=TMP_CALCS/scangeom_S02_270_050.chk
#p hf 3-21g
   scf=tight NoSymmetry guess=read
   opt=(tight,modredundant)

Geometry optimization at the 2D-PES

0 1
 C     +0.731884    +0.629070    +0.036911
 C     +1.384511    -0.506561    -0.013427
 H     +1.196883    +1.591968    +0.066149
 H     +2.455158    -0.524639    -0.002235
 H     +0.864916    -1.444421    -0.030761
 O     -0.679518    +0.655449    +0.038773
 O     -1.153179    +0.725841    -1.358226
 H     -0.658826    +0.006749    -1.794977

 2  1  6  7 F
 1  6  7  8 F

