%nproc=1
%mem=1GB
%chk=TMP_CALCS/scangeom_S02_170_080.chk
#p hf 3-21g
   scf=tight NoSymmetry guess=read
   opt=(tight,modredundant)

Geometry optimization at the 2D-PES

0 1
 C     +0.746544    +0.635562    +0.042107
 C     +1.375854    -0.510678    -0.005127
 H     +1.229094    +1.587579    +0.113755
 H     +2.445601    -0.540989    -0.004214
 H     +0.841866    -1.437780    -0.047810
 O     -0.657217    +0.687898    +0.005788
 O     -1.096624    +2.047026    +0.310275
 H     -0.971383    +2.506230    -0.540738

 2  1  6  7 F
 1  6  7  8 F

