%nproc=1
%mem=1GB
%chk=TMP_CALCS/scangeom_S02_080_150.chk
#p hf 3-21g
   scf=tight NoSymmetry guess=read
   opt=(tight,modredundant)

Geometry optimization at the 2D-PES

0 1
 C     +0.727261    +0.619651    +0.041470
 C     +1.375577    -0.514800    -0.007383
 H     +1.196212    +1.578319    +0.118757
 H     +2.446148    -0.534759    +0.013008
 H     +0.852525    -1.447469    -0.064235
 O     -0.679138    +0.674944    -0.016348
 O     -1.168224    +0.351290    +1.340770
 H     -1.989903    +0.872006    +1.334569

 2  1  6  7 F
 1  6  7  8 F

