%nproc=1
%mem=1GB
%chk=TMP_CALCS/scangeom_S02_260_030.chk
#p hf 3-21g
   scf=tight NoSymmetry guess=read
   opt=(tight,modredundant)

Geometry optimization at the 2D-PES

0 1
 C     +0.733447    +0.631900    +0.035584
 C     +1.381211    -0.506059    -0.014925
 H     +1.198923    +1.594628    +0.067789
 H     +2.451710    -0.529301    +0.004089
 H     +0.855175    -1.439577    -0.041856
 O     -0.677223    +0.654547    +0.042805
 O     -1.141308    +0.963039    -1.324733
 H     -0.437407    +0.587838    -1.887249

 2  1  6  7 F
 1  6  7  8 F

