%nproc=1
%mem=1GB
%chk=TMP_CALCS/scangeom_S02_110_040.chk
#p hf 3-21g
   scf=tight NoSymmetry guess=read
   opt=(tight,modredundant)

Geometry optimization at the 2D-PES

0 1
 C     +0.754753    +0.623205    +0.047953
 C     +1.387069    -0.520934    -0.001421
 H     +1.242880    +1.578120    +0.084127
 H     +2.457233    -0.558084    -0.021334
 H     +0.844306    -1.443125    -0.042077
 O     -0.651531    +0.681881    -0.012130
 O     -1.193437    +1.087502    +1.300764
 H     -0.579585    +1.777079    +1.615859

 2  1  6  7 F
 1  6  7  8 F

