%nproc=1
%mem=1GB
%chk=TMP_CALCS/scangeom_S02_000_340.chk
#p hf 3-21g
   scf=tight NoSymmetry guess=read
   opt=(tight,modredundant)

Geometry optimization at the 2D-PES

0 1
 C     +0.753510    +0.551416    +0.042158
 C     +1.487030    -0.532262    -0.048576
 H     +1.176010    +1.531885    +0.111842
 H     +2.552474    -0.438763    -0.050667
 H     +1.108429    -1.532803    -0.098737
 O     -0.626563    +0.694255    +0.041491
 O     -1.395682    -0.542063    -0.077826
 H     -0.782639    -1.195896    -0.452194

 2  1  6  7 F
 1  6  7  8 F

