%nproc=1
%mem=1GB
%chk=TMP_CALCS/scangeom_S02_070_170.chk
#p hf 3-21g
   scf=tight NoSymmetry guess=read
   opt=(tight,modredundant)

Geometry optimization at the 2D-PES

0 1
 C     +0.729610    +0.613833    +0.044325
 C     +1.379532    -0.519379    -0.012608
 H     +1.199054    +1.573424    +0.108530
 H     +2.450150    -0.535812    +0.004602
 H     +0.859720    -1.454194    -0.061210
 O     -0.675505    +0.685672    -0.007533
 O     -1.185255    +0.129432    +1.262561
 H     -2.119989    +0.384344    +1.175108

 2  1  6  7 F
 1  6  7  8 F

