%nproc=1
%mem=1GB
%chk=TMP_CALCS/scangeom_S02_120_110.chk
#p hf 3-21g
   scf=tight NoSymmetry guess=read
   opt=(tight,modredundant)

Geometry optimization at the 2D-PES

0 1
 C     +0.731087    +0.632821    +0.048948
 C     +1.371185    -0.506672    +0.003171
 H     +1.198132    +1.592039    +0.125007
 H     +2.441459    -0.534231    -0.006783
 H     +0.837680    -1.433831    -0.042073
 O     -0.672839    +0.668884    -0.023935
 O     -1.131963    +1.298137    +1.224076
 H     -1.456062    +2.149187    +0.882269

 2  1  6  7 F
 1  6  7  8 F

