%nproc=1
%mem=1GB
%chk=TMP_CALCS/scangeom_S02_060_270.chk
#p hf 3-21g
   scf=tight NoSymmetry guess=read
   opt=(tight,modredundant)

Geometry optimization at the 2D-PES

0 1
 C     +0.738660    +0.596495    +0.054578
 C     +1.410657    -0.524113    -0.023381
 H     +1.200750    +1.560085    +0.100522
 H     +2.480933    -0.512555    -0.026258
 H     +0.934496    -1.482849    -0.079989
 O     -0.667874    +0.689658    +0.024868
 O     -1.251623    -0.061724    +1.140408
 H     -1.373620    -0.945275    +0.752065

 2  1  6  7 F
 1  6  7  8 F

