%nproc=1
%mem=1GB
%chk=TMP_CALCS/scangeom_S02_160_160.chk
#p hf 3-21g
   scf=tight NoSymmetry guess=read
   opt=(tight,modredundant)

Geometry optimization at the 2D-PES

0 1
 C     +0.722612    +0.634282    +0.053519
 C     +1.367388    -0.503906    -0.002874
 H     +1.178332    +1.598773    +0.107782
 H     +2.437339    -0.517516    -0.016466
 H     +0.848553    -1.439642    -0.044762
 O     -0.673593    +0.672510    -0.003111
 O     -1.065090    +1.970842    +0.560528
 H     -1.958072    +2.040189    +0.184416

 2  1  6  7 F
 1  6  7  8 F

