%nproc=1
%mem=1GB
%chk=TMP_CALCS/scangeom_S02_200_050.chk
#p hf 3-21g
   scf=tight NoSymmetry guess=read
   opt=(tight,modredundant)

Geometry optimization at the 2D-PES

0 1
 C     +0.743481    +0.637049    +0.018964
 C     +1.376216    -0.508072    -0.015949
 H     +1.214517    +1.593944    +0.103608
 H     +2.445277    -0.537844    +0.026626
 H     +0.844913    -1.435982    -0.075667
 O     -0.660921    +0.680118    +0.045683
 O     -1.098082    +2.005616    -0.393540
 H     -0.602104    +2.138898    -1.222752

 2  1  6  7 F
 1  6  7  8 F

