%nproc=1
%mem=1GB
%chk=TMP_CALCS/scangeom_S02_160_100.chk
#p hf 3-21g
   scf=tight NoSymmetry guess=read
   opt=(tight,modredundant)

Geometry optimization at the 2D-PES

0 1
 C     +0.735918    +0.637020    +0.050990
 C     +1.370937    -0.505981    -0.004784
 H     +1.201796    +1.596340    +0.112623
 H     +2.440759    -0.529880    -0.020493
 H     +0.842216    -1.436368    -0.041097
 O     -0.665796    +0.681178    +0.001994
 O     -1.083869    +1.968947    +0.554437
 H     -1.252055    +2.468943    -0.263043

 2  1  6  7 F
 1  6  7  8 F

