%nproc=1
%mem=1GB
%chk=TMP_CALCS/scangeom_S02_160_140.chk
#p hf 3-21g
   scf=tight NoSymmetry guess=read
   opt=(tight,modredundant)

Geometry optimization at the 2D-PES

0 1
 C     +0.725800    +0.635309    +0.053028
 C     +1.367914    -0.504245    -0.003669
 H     +1.182644    +1.598990    +0.109081
 H     +2.437838    -0.520395    -0.017974
 H     +0.846591    -1.438663    -0.043449
 O     -0.671570    +0.674885    -0.001838
 O     -1.069072    +1.970490    +0.559612
 H     -1.788854    +2.195150    -0.053029

 2  1  6  7 F
 1  6  7  8 F

