%nproc=1
%mem=1GB
%chk=TMP_CALCS/scangeom_S02_090_010.chk
#p hf 3-21g
   scf=tight NoSymmetry guess=read
   opt=(tight,modredundant)

Geometry optimization at the 2D-PES

0 1
 C     +0.751909    +0.619539    +0.034863
 C     +1.391427    -0.523093    -0.008899
 H     +1.231277    +1.576110    +0.082762
 H     +2.462117    -0.553083    -0.005898
 H     +0.857605    -1.450293    -0.068384
 O     -0.657641    +0.673189    -0.005886
 O     -1.209860    +0.615265    +1.368084
 H     -0.430493    +0.718597    +1.945506

 2  1  6  7 F
 1  6  7  8 F

