%nproc=1
%mem=1GB
%chk=TMP_CALCS/scangeom_S02_110_010.chk
#p hf 3-21g
   scf=tight NoSymmetry guess=read
   opt=(tight,modredundant)

Geometry optimization at the 2D-PES

0 1
 C     +0.756775    +0.624327    +0.044783
 C     +1.387309    -0.522067    -0.001649
 H     +1.242482    +1.579336    +0.082610
 H     +2.457526    -0.560184    -0.017573
 H     +0.844098    -1.443983    -0.047879
 O     -0.649631    +0.677126    -0.011038
 O     -1.193501    +1.087752    +1.303595
 H     -0.414105    +1.370256    +1.817222

 2  1  6  7 F
 1  6  7  8 F

