%nproc=1
%mem=1GB
%chk=TMP_CALCS/scangeom_S02_100_150.chk
#p hf 3-21g
   scf=tight NoSymmetry guess=read
   opt=(tight,modredundant)

Geometry optimization at the 2D-PES

0 1
 C     +0.724661    +0.627607    +0.041346
 C     +1.369489    -0.509343    +0.000854
 H     +1.190243    +1.586355    +0.130425
 H     +2.440040    -0.533521    +0.013900
 H     +0.841351    -1.438934    -0.058570
 O     -0.680413    +0.665418    -0.027901
 O     -1.142886    +0.832525    +1.366114
 H     -1.965039    +1.323910    +1.197672

 2  1  6  7 F
 1  6  7  8 F

