%nproc=1
%mem=1GB
%chk=TMP_CALCS/scangeom_S02_130_080.chk
#p hf 3-21g
   scf=tight NoSymmetry guess=read
   opt=(tight,modredundant)

Geometry optimization at the 2D-PES

0 1
 C     +0.746077    +0.631431    +0.058444
 C     +1.377513    -0.512310    +0.003813
 H     +1.233064    +1.585141    +0.106077
 H     +2.447159    -0.547932    -0.023361
 H     +0.835979    -1.435214    -0.030616
 O     -0.656965    +0.684289    -0.018263
 O     -1.152453    +1.508669    +1.090348
 H     -1.011198    +2.416144    +0.762047

 2  1  6  7 F
 1  6  7  8 F

