%nproc=1
%mem=1GB
%chk=TMP_CALCS/scangeom_S02_060_180.chk
#p hf 3-21g
   scf=tight NoSymmetry guess=read
   opt=(tight,modredundant)

Geometry optimization at the 2D-PES

0 1
 C     +0.731026    +0.606551    +0.053356
 C     +1.387710    -0.522137    -0.019860
 H     +1.194822    +1.569576    +0.102062
 H     +2.458363    -0.529082    -0.015394
 H     +0.876678    -1.462031    -0.053539
 O     -0.671080    +0.695072    +0.009479
 O     -1.201796    -0.080853    +1.146634
 H     -2.151495    +0.064435    +0.995287

 2  1  6  7 F
 1  6  7  8 F

