%nproc=1
%mem=1GB
%chk=TMP_CALCS/scangeom_S02_000_160.chk
#p hf 3-21g
   scf=tight NoSymmetry guess=read
   opt=(tight,modredundant)

Geometry optimization at the 2D-PES

0 1
 C     +0.732090    +0.572745    +0.032138
 C     +1.420457    -0.536419    -0.054872
 H     +1.164827    +1.549715    +0.098738
 H     +2.489952    -0.495726    -0.059989
 H     +0.946664    -1.490655    -0.122102
 O     -0.652274    +0.712301    +0.050483
 O     -1.268544    -0.611330    -0.045167
 H     -2.147613    -0.392357    +0.305475

 2  1  6  7 F
 1  6  7  8 F

