%nproc=1
%mem=1GB
%chk=TMP_CALCS/scangeom_S02_020_090.chk
#p hf 3-21g
   scf=tight NoSymmetry guess=read
   opt=(tight,modredundant)

Geometry optimization at the 2D-PES

0 1
 C     +0.740714    +0.575092    +0.053129
 C     +1.424548    -0.536078    -0.041335
 H     +1.174780    +1.553260    +0.082955
 H     +2.494140    -0.503846    -0.059511
 H     +0.941473    -1.487731    -0.087782
 O     -0.653987    +0.706582    +0.052746
 O     -1.276583    -0.565551    +0.402891
 H     -1.332283    -0.482446    +1.371100

 2  1  6  7 F
 1  6  7  8 F

