%nproc=1
%mem=1GB
%chk=TMP_CALCS/scangeom_S02_190_120.chk
#p hf 3-21g
   scf=tight NoSymmetry guess=read
   opt=(tight,modredundant)

Geometry optimization at the 2D-PES

0 1
 C     +0.731145    +0.636680    +0.029009
 C     +1.370578    -0.504848    -0.014161
 H     +1.189174    +1.598938    +0.095957
 H     +2.440139    -0.524540    +0.017278
 H     +0.848920    -1.438336    -0.071842
 O     -0.671990    +0.675355    +0.033723
 O     -1.070541    +2.068340    -0.156856
 H     -1.585994    +2.000331    -0.979207

 2  1  6  7 F
 1  6  7  8 F

