%nproc=1
%mem=1GB
%chk=TMP_CALCS/scangeom_S02_110_100.chk
#p hf 3-21g
   scf=tight NoSymmetry guess=read
   opt=(tight,modredundant)

Geometry optimization at the 2D-PES

0 1
 C     +0.737512    +0.628010    +0.048136
 C     +1.375812    -0.511979    +0.002087
 H     +1.214678    +1.584716    +0.115811
 H     +2.446193    -0.543596    -0.003059
 H     +0.838827    -1.436992    -0.046897
 O     -0.670042    +0.672893    -0.020798
 O     -1.160217    +1.074811    +1.305876
 H     -1.341051    +2.022804    +1.172134

 2  1  6  7 F
 1  6  7  8 F

