%nproc=1
%mem=1GB
%chk=TMP_CALCS/scangeom_S02_040_060.chk
#p hf 3-21g
   scf=tight NoSymmetry guess=read
   opt=(tight,modredundant)

Geometry optimization at the 2D-PES

0 1
 C     +0.745901    +0.590697    +0.057688
 C     +1.415447    -0.530240    -0.030966
 H     +1.192292    +1.563436    +0.074998
 H     +2.485710    -0.520169    -0.046576
 H     +0.914171    -1.474866    -0.065570
 O     -0.657397    +0.702013    +0.040906
 O     -1.256439    -0.383332    +0.818538
 H     -0.876459    -0.234448    +1.704023

 2  1  6  7 F
 1  6  7  8 F

