%nproc=1
%mem=1GB
%chk=TMP_CALCS/scangeom_S02_150_070.chk
#p hf 3-21g
   scf=tight NoSymmetry guess=read
   opt=(tight,modredundant)

Geometry optimization at the 2D-PES

0 1
 C     +0.752269    +0.633638    +0.060155
 C     +1.377961    -0.513578    +0.002113
 H     +1.248084    +1.582667    +0.103002
 H     +2.447239    -0.550583    -0.026254
 H     +0.835729    -1.436212    -0.028047
 O     -0.648310    +0.693352    -0.014427
 O     -1.134524    +1.847339    +0.744785
 H     -0.841833    +2.606107    +0.206296

 2  1  6  7 F
 1  6  7  8 F

