%nproc=1
%mem=1GB
%chk=TMP_CALCS/scangeom_S02_240_110.chk
#p hf 3-21g
   scf=tight NoSymmetry guess=read
   opt=(tight,modredundant)

Geometry optimization at the 2D-PES

0 1
 C     +0.721460    +0.636121    +0.023786
 C     +1.367518    -0.500856    -0.025904
 H     +1.181326    +1.600002    +0.055956
 H     +2.437400    -0.523632    +0.009059
 H     +0.843809    -1.433963    -0.075099
 O     -0.685025    +0.662986    +0.054641
 O     -1.098459    +1.417401    -1.140769
 H     -1.485205    +0.698294    -1.669181

 2  1  6  7 F
 1  6  7  8 F

