%nproc=1
%mem=1GB
%chk=TMP_CALCS/scangeom_S02_110_220.chk
#p hf 3-21g
   scf=tight NoSymmetry guess=read
   opt=(tight,modredundant)

Geometry optimization at the 2D-PES

0 1
 C     +0.725130    +0.628395    +0.045810
 C     +1.368748    -0.509747    +0.004029
 H     +1.190420    +1.587188    +0.129379
 H     +2.439274    -0.533762    +0.007708
 H     +0.842316    -1.440500    -0.055540
 O     -0.678828    +0.667270    -0.026382
 O     -1.136137    +1.074600    +1.318283
 H     -1.907385    +0.488617    +1.401625

 2  1  6  7 F
 1  6  7  8 F

