%nproc=1
%mem=1GB
%chk=TMP_CALCS/scangeom_S02_030_250.chk
#p hf 3-21g
   scf=tight NoSymmetry guess=read
   opt=(tight,modredundant)

Geometry optimization at the 2D-PES

0 1
 C     +0.736659    +0.576857    +0.063697
 C     +1.418192    -0.535097    -0.040186
 H     +1.176687    +1.551950    +0.092269
 H     +2.487598    -0.505717    -0.066332
 H     +0.940177    -1.490808    -0.048995
 O     -0.656436    +0.707356    +0.049926
 O     -1.270098    -0.498703    +0.602457
 H     -1.666722    -0.878152    -0.200516

 2  1  6  7 F
 1  6  7  8 F

