%nproc=1
%mem=1GB
%chk=TMP_CALCS/scangeom_S02_190_130.chk
#p hf 3-21g
   scf=tight NoSymmetry guess=read
   opt=(tight,modredundant)

Geometry optimization at the 2D-PES

0 1
 C     +0.728552    +0.636409    +0.030037
 C     +1.369604    -0.504305    -0.014182
 H     +1.185482    +1.599289    +0.093620
 H     +2.439185    -0.522235    +0.016716
 H     +0.849566    -1.438657    -0.072248
 O     -0.673449    +0.673885    +0.033914
 O     -1.067147    +2.069668    -0.155569
 H     -1.711257    +1.974597    -0.877826

 2  1  6  7 F
 1  6  7  8 F

