%nproc=1
%mem=1GB
%chk=TMP_CALCS/scangeom_S02_190_170.chk
#p hf 3-21g
   scf=tight NoSymmetry guess=read
   opt=(tight,modredundant)

Geometry optimization at the 2D-PES

0 1
 C     +0.719652    +0.634641    +0.031539
 C     +1.367015    -0.502804    -0.013619
 H     +1.174085    +1.599345    +0.088597
 H     +2.436636    -0.514437    +0.015305
 H     +0.852469    -1.440022    -0.073198
 O     -0.678199    +0.668180    +0.036054
 O     -1.054920    +2.073334    -0.153945
 H     -2.008810    +1.962434    -0.300550

 2  1  6  7 F
 1  6  7  8 F

