%nproc=1
%mem=1GB
%chk=TMP_CALCS/scangeom_S02_210_020.chk
#p hf 3-21g
   scf=tight NoSymmetry guess=read
   opt=(tight,modredundant)

Geometry optimization at the 2D-PES

0 1
 C     +0.762198    +0.633911    +0.014826
 C     +1.386943    -0.515670    -0.008787
 H     +1.257311    +1.579931    +0.119917
 H     +2.453996    -0.557340    +0.064011
 H     +0.845283    -1.435909    -0.086989
 O     -0.638192    +0.688693    +0.038257
 O     -1.139744    +1.903323    -0.624594
 H     -0.408162    +2.206799    -1.192349

 2  1  6  7 F
 1  6  7  8 F

