%nproc=1
%mem=1GB
%chk=TMP_CALCS/scangeom_S02_000_200.chk
#p hf 3-21g
   scf=tight NoSymmetry guess=read
   opt=(tight,modredundant)

Geometry optimization at the 2D-PES

0 1
 C     +0.733466    +0.572228    +0.026955
 C     +1.422996    -0.536382    -0.056666
 H     +1.165092    +1.549000    +0.103190
 H     +2.492462    -0.495192    -0.056735
 H     +0.949414    -1.490679    -0.123055
 O     -0.652282    +0.711314    +0.046465
 O     -1.272867    -0.609440    -0.043161
 H     -2.156871    -0.344749    -0.347081

 2  1  6  7 F
 1  6  7  8 F

