%nproc=1
%mem=1GB
%chk=TMP_CALCS/scangeom_S02_010_200.chk
#p hf 3-21g
   scf=tight NoSymmetry guess=read
   opt=(tight,modredundant)

Geometry optimization at the 2D-PES

0 1
 C     +0.731182    +0.571927    +0.040404
 C     +1.417390    -0.538406    -0.049216
 H     +1.165821    +1.548625    +0.097255
 H     +2.486971    -0.500322    -0.055904
 H     +0.941334    -1.492524    -0.101904
 O     -0.653830    +0.712011    +0.047167
 O     -1.267127    -0.610654    +0.176471
 H     -2.153334    -0.398159    -0.160114

 2  1  6  7 F
 1  6  7  8 F

