%nproc=1
%mem=1GB
%chk=TMP_CALCS/scangeom_S02_070_220.chk
#p hf 3-21g
   scf=tight NoSymmetry guess=read
   opt=(tight,modredundant)

Geometry optimization at the 2D-PES

0 1
 C     +0.730643    +0.611303    +0.049534
 C     +1.383382    -0.520104    -0.014345
 H     +1.199116    +1.571290    +0.106799
 H     +2.454042    -0.533360    -0.006736
 H     +0.869380    -1.458600    -0.056239
 O     -0.674626    +0.687724    +0.000348
 O     -1.195213    +0.128556    +1.263124
 H     -1.958390    -0.359945    +0.910346

 2  1  6  7 F
 1  6  7  8 F

