%nproc=1
%mem=1GB
%chk=TMP_CALCS/scangeom_S02_070_140.chk
#p hf 3-21g
   scf=tight NoSymmetry guess=read
   opt=(tight,modredundant)

Geometry optimization at the 2D-PES

0 1
 C     +0.733428    +0.612503    +0.045903
 C     +1.383762    -0.520054    -0.013502
 H     +1.203803    +1.572499    +0.104713
 H     +2.454511    -0.535879    -0.000923
 H     +0.863887    -1.454949    -0.061243
 O     -0.674078    +0.685265    -0.001941
 O     -1.196124    +0.132826    +1.260958
 H     -1.920783    +0.759650    +1.429249

 2  1  6  7 F
 1  6  7  8 F

