%nproc=1
%mem=1GB
%chk=TMP_CALCS/scangeom_S02_090_070.chk
#p hf 3-21g
   scf=tight NoSymmetry guess=read
   opt=(tight,modredundant)

Geometry optimization at the 2D-PES

0 1
 C     +0.745085    +0.619509    +0.042661
 C     +1.386312    -0.519068    -0.006481
 H     +1.224015    +1.577246    +0.094440
 H     +2.457039    -0.548645    -0.003967
 H     +0.851943    -1.445815    -0.056905
 O     -0.666504    +0.678834    -0.010099
 O     -1.198045    +0.607449    +1.361592
 H     -0.940306    +1.466702    +1.744488

 2  1  6  7 F
 1  6  7  8 F

