%nproc=1
%mem=1GB
%chk=TMP_CALCS/scangeom_S02_230_110.chk
#p hf 3-21g
   scf=tight NoSymmetry guess=read
   opt=(tight,modredundant)

Geometry optimization at the 2D-PES

0 1
 C     +0.726612    +0.638266    +0.024111
 C     +1.370199    -0.500554    -0.023672
 H     +1.183933    +1.602752    +0.066453
 H     +2.439710    -0.524877    +0.018328
 H     +0.844982    -1.432591    -0.077576
 O     -0.679960    +0.664134    +0.055090
 O     -1.096987    +1.609400    -0.988317
 H     -1.488312    +1.002864    -1.641644

 2  1  6  7 F
 1  6  7  8 F

