%nproc=1
%mem=1GB
%chk=TMP_CALCS/scangeom_S02_060_070.chk
#p hf 3-21g
   scf=tight NoSymmetry guess=read
   opt=(tight,modredundant)

Geometry optimization at the 2D-PES

0 1
 C     +0.744752    +0.605125    +0.054078
 C     +1.400708    -0.523675    -0.021363
 H     +1.207859    +1.570320    +0.083275
 H     +2.471555    -0.532554    -0.026859
 H     +0.884697    -1.461234    -0.055134
 O     -0.665585    +0.693496    +0.019968
 O     -1.228080    -0.064780    +1.143473
 H     -0.970557    +0.484728    +1.905703

 2  1  6  7 F
 1  6  7  8 F

