%nproc=1
%mem=1GB
%chk=TMP_CALCS/scangeom_S02_090_260.chk
#p hf 3-21g
   scf=tight NoSymmetry guess=read
   opt=(tight,modredundant)

Geometry optimization at the 2D-PES

0 1
 C     +0.728857    +0.619962    +0.040393
 C     +1.377475    -0.515534    -0.003288
 H     +1.197630    +1.577309    +0.121982
 H     +2.447956    -0.535598    +0.015332
 H     +0.861196    -1.451707    -0.077957
 O     -0.681235    +0.670604    -0.016316
 O     -1.171304    +0.597936    +1.371253
 H     -1.416819    -0.342016    +1.418963

 2  1  6  7 F
 1  6  7  8 F

