%nproc=1
%mem=1GB
%chk=TMP_CALCS/scangeom_S02_110_020.chk
#p hf 3-21g
   scf=tight NoSymmetry guess=read
   opt=(tight,modredundant)

Geometry optimization at the 2D-PES

0 1
 C     +0.757440    +0.623616    +0.045812
 C     +1.388124    -0.522250    -0.002192
 H     +1.244675    +1.578436    +0.080634
 H     +2.458293    -0.560403    -0.021149
 H     +0.844607    -1.444047    -0.045132
 O     -0.648832    +0.679492    -0.010606
 O     -1.195469    +1.088480    +1.302709
 H     -0.449534    +1.518997    +1.760185

 2  1  6  7 F
 1  6  7  8 F

