%nproc=1
%mem=1GB
%chk=TMP_CALCS/scangeom_S02_010_120.chk
#p hf 3-21g
   scf=tight NoSymmetry guess=read
   opt=(tight,modredundant)

Geometry optimization at the 2D-PES

0 1
 C     +0.738236    +0.570485    +0.043518
 C     +1.426826    -0.538100    -0.046123
 H     +1.168886    +1.549557    +0.088997
 H     +2.496254    -0.499522    -0.056606
 H     +0.949668    -1.491229    -0.108154
 O     -0.653115    +0.706602    +0.050758
 O     -1.282859    -0.602505    +0.179455
 H     -1.779201    -0.480277    +1.007180

 2  1  6  7 F
 1  6  7  8 F

