%nproc=1
%mem=1GB
%chk=TMP_CALCS/scangeom_S02_010_300.chk
#p hf 3-21g
   scf=tight NoSymmetry guess=read
   opt=(tight,modredundant)

Geometry optimization at the 2D-PES

0 1
 C     +0.741074    +0.566556    +0.058883
 C     +1.438444    -0.536569    -0.052950
 H     +1.171475    +1.545348    +0.100040
 H     +2.506467    -0.486122    -0.086259
 H     +0.989782    -1.506561    -0.056623
 O     -0.647113    +0.702235    +0.060182
 O     -1.311226    -0.589895    +0.151447
 H     -0.990146    -1.049950    -0.647122

 2  1  6  7 F
 1  6  7  8 F

