%nproc=1
%mem=1GB
%chk=TMP_CALCS/scangeom_S02_120_150.chk
#p hf 3-21g
   scf=tight NoSymmetry guess=read
   opt=(tight,modredundant)

Geometry optimization at the 2D-PES

0 1
 C     +0.724933    +0.632540    +0.047753
 C     +1.368038    -0.505771    +0.004026
 H     +1.185456    +1.593692    +0.130456
 H     +2.438418    -0.529479    -0.002056
 H     +0.838946    -1.435305    -0.045028
 O     -0.676193    +0.665895    -0.028181
 O     -1.120097    +1.298835    +1.228572
 H     -1.936854    +1.719301    +0.910686

 2  1  6  7 F
 1  6  7  8 F

