%nproc=1
%mem=1GB
%chk=TMP_CALCS/scangeom_S02_250_000.chk
#p hf 3-21g
   scf=tight NoSymmetry guess=read
   opt=(tight,modredundant)

Geometry optimization at the 2D-PES

0 1
 C     +0.746168    +0.630023    +0.032711
 C     +1.391921    -0.508706    -0.005038
 H     +1.219023    +1.589760    +0.092124
 H     +2.461948    -0.534964    +0.035206
 H     +0.861745    -1.438242    -0.055017
 O     -0.663601    +0.665729    +0.035337
 O     -1.158346    +1.197082    -1.256336
 H     -0.350243    +1.382238    -1.770131

 2  1  6  7 F
 1  6  7  8 F

