%nproc=1
%mem=1GB
%chk=TMP_CALCS/scangeom_S02_080_230.chk
#p hf 3-21g
   scf=tight NoSymmetry guess=read
   opt=(tight,modredundant)

Geometry optimization at the 2D-PES

0 1
 C     +0.730042    +0.614793    +0.045816
 C     +1.383716    -0.516894    -0.009397
 H     +1.198712    +1.573479    +0.115438
 H     +2.454356    -0.530603    +0.002799
 H     +0.873461    -1.457067    -0.071223
 O     -0.679074    +0.676694    -0.003833
 O     -1.188492    +0.355553    +1.341125
 H     -1.848589    -0.320898    +1.112945

 2  1  6  7 F
 1  6  7  8 F

