%nproc=1
%mem=1GB
%chk=TMP_CALCS/scangeom_S02_000_190.chk
#p hf 3-21g
   scf=tight NoSymmetry guess=read
   opt=(tight,modredundant)

Geometry optimization at the 2D-PES

0 1
 C     +0.732594    +0.572668    +0.027750
 C     +1.421476    -0.536373    -0.056209
 H     +1.164884    +1.549278    +0.102187
 H     +2.490972    -0.495601    -0.056917
 H     +0.947796    -1.490610    -0.123565
 O     -0.652316    +0.712005    +0.047130
 O     -1.270277    -0.610714    -0.043226
 H     -2.191861    -0.337850    -0.184514

 2  1  6  7 F
 1  6  7  8 F

