%nproc=1
%mem=1GB
%chk=TMP_CALCS/scangeom_S02_270_070.chk
#p hf 3-21g
   scf=tight NoSymmetry guess=read
   opt=(tight,modredundant)

Geometry optimization at the 2D-PES

0 1
 C     +0.726123    +0.627764    +0.036306
 C     +1.379418    -0.506644    -0.017377
 H     +1.189443    +1.591138    +0.058395
 H     +2.450040    -0.523557    -0.011189
 H     +0.863623    -1.446885    -0.030478
 O     -0.686509    +0.655902    +0.041912
 O     -1.141670    +0.728712    -1.357316
 H     -0.913959    -0.156864    -1.696147

 2  1  6  7 F
 1  6  7  8 F

