%nproc=1
%mem=1GB
%chk=TMP_CALCS/scangeom_S02_080_130.chk
#p hf 3-21g
   scf=tight NoSymmetry guess=read
   opt=(tight,modredundant)

Geometry optimization at the 2D-PES

0 1
 C     +0.729295    +0.619083    +0.041536
 C     +1.377566    -0.515197    -0.007796
 H     +1.199157    +1.577817    +0.116771
 H     +2.448189    -0.535179    +0.011003
 H     +0.854005    -1.447604    -0.064506
 O     -0.678420    +0.674667    -0.013920
 O     -1.173319    +0.353259    +1.339487
 H     -1.786873    +1.097188    +1.467635

 2  1  6  7 F
 1  6  7  8 F

