%nproc=1
%mem=1GB
%chk=TMP_CALCS/scangeom_S02_120_010.chk
#p hf 3-21g
   scf=tight NoSymmetry guess=read
   opt=(tight,modredundant)

Geometry optimization at the 2D-PES

0 1
 C     +0.759720    +0.625230    +0.051413
 C     +1.387903    -0.521174    -0.000981
 H     +1.251910    +1.578745    +0.075371
 H     +2.457502    -0.560837    -0.034061
 H     +0.842345    -1.441966    -0.032966
 O     -0.643854    +0.684913    -0.011014
 O     -1.186099    +1.311094    +1.212067
 H     -0.406735    +1.668174    +1.677066

 2  1  6  7 F
 1  6  7  8 F

