%nproc=1
%mem=1GB
%chk=TMP_CALCS/scangeom_S02_200_120.chk
#p hf 3-21g
   scf=tight NoSymmetry guess=read
   opt=(tight,modredundant)

Geometry optimization at the 2D-PES

0 1
 C     +0.725122    +0.637826    +0.024899
 C     +1.367562    -0.502142    -0.019528
 H     +1.182145    +1.601205    +0.081892
 H     +2.436961    -0.520587    +0.018032
 H     +0.847381    -1.436282    -0.079870
 O     -0.675632    +0.671946    +0.050330
 O     -1.070286    +2.014730    -0.384205
 H     -1.597408    +1.791228    -1.169735

 2  1  6  7 F
 1  6  7  8 F

