%nproc=1
%mem=1GB
%chk=TMP_CALCS/scangeom_S02_200_080.chk
#p hf 3-21g
   scf=tight NoSymmetry guess=read
   opt=(tight,modredundant)

Geometry optimization at the 2D-PES

0 1
 C     +0.734714    +0.638160    +0.022172
 C     +1.371800    -0.504587    -0.018414
 H     +1.195059    +1.599794    +0.091109
 H     +2.441116    -0.528921    +0.021007
 H     +0.846123    -1.435833    -0.077056
 O     -0.669955    +0.676074    +0.047427
 O     -1.083374    +2.008482    -0.387645
 H     -1.004575    +1.933755    -1.355731

 2  1  6  7 F
 1  6  7  8 F

