%nproc=1
%mem=1GB
%chk=TMP_CALCS/scangeom_S02_060_290.chk
#p hf 3-21g
   scf=tight NoSymmetry guess=read
   opt=(tight,modredundant)

Geometry optimization at the 2D-PES

0 1
 C     +0.736164    +0.606758    +0.043585
 C     +1.397316    -0.521508    -0.016080
 H     +1.203933    +1.566329    +0.108015
 H     +2.467732    -0.525563    -0.002288
 H     +0.904251    -1.470742    -0.092744
 O     -0.673876    +0.681669    +0.005446
 O     -1.231168    -0.067835    +1.139142
 H     -1.032172    -0.987145    +0.890002

 2  1  6  7 F
 1  6  7  8 F

