%nproc=1
%mem=1GB
%chk=TMP_CALCS/scangeom_S02_180_010.chk
#p hf 3-21g
   scf=tight NoSymmetry guess=read
   opt=(tight,modredundant)

Geometry optimization at the 2D-PES

0 1
 C     +0.766250    +0.629478    +0.036470
 C     +1.383963    -0.523383    -0.005466
 H     +1.280064    +1.568028    +0.106828
 H     +2.453026    -0.565670    +0.011607
 H     +0.838870    -1.443299    -0.057382
 O     -0.632875    +0.697923    +0.018903
 O     -1.131036    +2.075309    +0.072538
 H     -0.345237    +2.637220    -0.054432

 2  1  6  7 F
 1  6  7  8 F

