%nproc=1
%mem=1GB
%chk=TMP_CALCS/scangeom_S02_060_190.chk
#p hf 3-21g
   scf=tight NoSymmetry guess=read
   opt=(tight,modredundant)

Geometry optimization at the 2D-PES

0 1
 C     +0.731576    +0.605705    +0.054806
 C     +1.389138    -0.522337    -0.020456
 H     +1.194925    +1.568949    +0.101703
 H     +2.459772    -0.528285    -0.018940
 H     +0.879706    -1.463208    -0.051794
 O     -0.670754    +0.695287    +0.011800
 O     -1.205295    -0.080709    +1.146170
 H     -2.146846    -0.073826    +0.902969

 2  1  6  7 F
 1  6  7  8 F

