%nproc=1
%mem=1GB
%chk=TMP_CALCS/scangeom_S02_110_030.chk
#p hf 3-21g
   scf=tight NoSymmetry guess=read
   opt=(tight,modredundant)

Geometry optimization at the 2D-PES

0 1
 C     +0.756682    +0.623215    +0.046906
 C     +1.387995    -0.521872    -0.002027
 H     +1.244728    +1.578012    +0.081243
 H     +2.458145    -0.559674    -0.022267
 H     +0.844667    -1.443779    -0.043172
 O     -0.649537    +0.681130    -0.011035
 O     -1.195407    +1.088473    +1.301656
 H     -0.504866    +1.655864    +1.692149

 2  1  6  7 F
 1  6  7  8 F

