%nproc=1
%mem=1GB
%chk=TMP_CALCS/scangeom_S02_200_150.chk
#p hf 3-21g
   scf=tight NoSymmetry guess=read
   opt=(tight,modredundant)

Geometry optimization at the 2D-PES

0 1
 C     +0.719506    +0.636852    +0.025108
 C     +1.365628    -0.501137    -0.019375
 H     +1.175050    +1.601417    +0.078944
 H     +2.435069    -0.515926    +0.016453
 H     +0.848414    -1.436770    -0.080711
 O     -0.678319    +0.668956    +0.053429
 O     -1.061684    +2.017282    -0.384416
 H     -1.916607    +1.811538    -0.797458

 2  1  6  7 F
 1  6  7  8 F

