%nproc=1
%mem=1GB
%chk=TMP_CALCS/scangeom_S02_050_050.chk
#p hf 3-21g
   scf=tight NoSymmetry guess=read
   opt=(tight,modredundant)

Geometry optimization at the 2D-PES

0 1
 C     +0.748811    +0.598529    +0.049223
 C     +1.412441    -0.528470    -0.026066
 H     +1.203167    +1.567246    +0.070906
 H     +2.482913    -0.529469    -0.030694
 H     +0.904037    -1.470094    -0.072975
 O     -0.655833    +0.694077    +0.029195
 O     -1.252296    -0.232650    +1.002270
 H     -0.757187    -0.044648    +1.822093

 2  1  6  7 F
 1  6  7  8 F

