%nproc=1
%mem=1GB
%chk=TMP_CALCS/scangeom_S02_270_060.chk
#p hf 3-21g
   scf=tight NoSymmetry guess=read
   opt=(tight,modredundant)

Geometry optimization at the 2D-PES

0 1
 C     +0.728748    +0.628501    +0.036922
 C     +1.381690    -0.506564    -0.015737
 H     +1.192725    +1.591726    +0.061645
 H     +2.452324    -0.524113    -0.007889
 H     +0.863961    -1.445672    -0.029698
 O     -0.683292    +0.655090    +0.040652
 O     -1.146949    +0.727257    -1.357540
 H     -0.778167    -0.087313    -1.747656

 2  1  6  7 F
 1  6  7  8 F

