%nproc=1
%mem=1GB
%chk=TMP_CALCS/scangeom_S02_000_140.chk
#p hf 3-21g
   scf=tight NoSymmetry guess=read
   opt=(tight,modredundant)

Geometry optimization at the 2D-PES

0 1
 C     +0.733563    +0.571749    +0.034069
 C     +1.423025    -0.536562    -0.054047
 H     +1.165163    +1.549509    +0.096500
 H     +2.492449    -0.494894    -0.061035
 H     +0.949409    -1.490701    -0.122411
 O     -0.652169    +0.711015    +0.052047
 O     -1.272904    -0.609139    -0.045257
 H     -2.000541    -0.484895    +0.586397

 2  1  6  7 F
 1  6  7  8 F

