%nproc=1
%mem=1GB
%chk=TMP_CALCS/scangeom_S02_030_270.chk
#p hf 3-21g
   scf=tight NoSymmetry guess=read
   opt=(tight,modredundant)

Geometry optimization at the 2D-PES

0 1
 C     +0.739057    +0.574694    +0.068104
 C     +1.424588    -0.534664    -0.040884
 H     +1.178259    +1.550214    +0.091147
 H     +2.493560    -0.500248    -0.073256
 H     +0.957500    -1.496293    -0.042970
 O     -0.654430    +0.705585    +0.054592
 O     -1.284402    -0.493524    +0.597143
 H     -1.394771    -1.032904    -0.205907

 2  1  6  7 F
 1  6  7  8 F

