%nproc=1
%mem=1GB
%chk=TMP_CALCS/scangeom_S02_010_000.chk
#p hf 3-21g
   scf=tight NoSymmetry guess=read
   opt=(tight,modredundant)

Geometry optimization at the 2D-PES

0 1
 C     +0.752770    +0.562399    +0.029411
 C     +1.471310    -0.532326    -0.052790
 H     +1.183168    +1.540920    +0.071292
 H     +2.538346    -0.459566    -0.060269
 H     +1.064973    -1.519153    -0.149279
 O     -0.630880    +0.693495    +0.059503
 O     -1.372090    -0.558152    +0.220362
 H     -0.694151    -1.253027    +0.274670

 2  1  6  7 F
 1  6  7  8 F

