%nproc=1
%mem=1GB
%chk=TMP_CALCS/scangeom_S02_030_000.chk
#p hf 3-21g
   scf=tight NoSymmetry guess=read
   opt=(tight,modredundant)

Geometry optimization at the 2D-PES

0 1
 C     +0.750618    +0.584825    +0.035750
 C     +1.437642    -0.530964    -0.037595
 H     +1.197654    +1.556222    +0.065389
 H     +2.507045    -0.502615    -0.040982
 H     +0.973097    -1.493265    -0.128026
 O     -0.643188    +0.689839    +0.045341
 O     -1.308729    -0.473912    +0.648329
 H     -0.577744    -1.064737    +0.907405

 2  1  6  7 F
 1  6  7  8 F

