%nproc=1
%mem=1GB
%chk=TMP_CALCS/scangeom_S02_220_020.chk
#p hf 3-21g
   scf=tight NoSymmetry guess=read
   opt=(tight,modredundant)

Geometry optimization at the 2D-PES

0 1
 C     +0.751697    +0.636258    +0.016981
 C     +1.382603    -0.510117    -0.013441
 H     +1.230155    +1.591262    +0.102690
 H     +2.450720    -0.547172    +0.048394
 H     +0.844443    -1.433526    -0.080544
 O     -0.651826    +0.677421    +0.043745
 O     -1.129792    +1.768552    -0.821592
 H     -0.379934    +1.950604    -1.417972

 2  1  6  7 F
 1  6  7  8 F

