%nproc=1
%mem=1GB
%chk=TMP_CALCS/scangeom_S02_090_180.chk
#p hf 3-21g
   scf=tight NoSymmetry guess=read
   opt=(tight,modredundant)

Geometry optimization at the 2D-PES

0 1
 C     +0.725752    +0.623583    +0.040036
 C     +1.370374    -0.513344    -0.002281
 H     +1.194942    +1.581151    +0.124678
 H     +2.440879    -0.537632    +0.016887
 H     +0.843340    -1.443618    -0.061987
 O     -0.680074    +0.670806    -0.025185
 O     -1.155207    +0.592657    +1.373512
 H     -2.113050    +0.632783    +1.209053

 2  1  6  7 F
 1  6  7  8 F

