%nproc=1
%mem=1GB
%chk=TMP_CALCS/scangeom_S02_150_190.chk
#p hf 3-21g
   scf=tight NoSymmetry guess=read
   opt=(tight,modredundant)

Geometry optimization at the 2D-PES

0 1
 C     +0.724206    +0.634026    +0.055395
 C     +1.367114    -0.505100    +0.002308
 H     +1.181584    +1.597608    +0.116212
 H     +2.437092    -0.522656    -0.012519
 H     +0.844414    -1.438615    -0.040930
 O     -0.671692    +0.673101    -0.018860
 O     -1.078106    +1.851493    +0.761630
 H     -2.036759    +1.695899    +0.787730

 2  1  6  7 F
 1  6  7  8 F

