%nproc=1
%mem=1GB
%chk=TMP_CALCS/scangeom_S02_030_140.chk
#p hf 3-21g
   scf=tight NoSymmetry guess=read
   opt=(tight,modredundant)

Geometry optimization at the 2D-PES

0 1
 C     +0.736300    +0.579085    +0.063363
 C     +1.413770    -0.535321    -0.035931
 H     +1.178599    +1.553990    +0.084708
 H     +2.483690    -0.509540    -0.057038
 H     +0.927103    -1.486493    -0.064178
 O     -0.657454    +0.708180    +0.049318
 O     -1.262111    -0.501674    +0.609868
 H     -1.979874    -0.099710    +1.127667

 2  1  6  7 F
 1  6  7  8 F

