%nproc=1
%mem=1GB
%chk=TMP_CALCS/scangeom_S02_170_160.chk
#p hf 3-21g
   scf=tight NoSymmetry guess=read
   opt=(tight,modredundant)

Geometry optimization at the 2D-PES

0 1
 C     +0.724630    +0.634439    +0.046818
 C     +1.367870    -0.504916    -0.005360
 H     +1.180903    +1.598178    +0.103385
 H     +2.437855    -0.519121    -0.003288
 H     +0.849435    -1.440639    -0.052700
 O     -0.673056    +0.674289    +0.003322
 O     -1.059356    +2.051477    +0.324040
 H     -1.957339    +2.055754    -0.046673

 2  1  6  7 F
 1  6  7  8 F

