%nproc=1
%mem=1GB
%chk=TMP_CALCS/scangeom_S02_060_030.chk
#p hf 3-21g
   scf=tight NoSymmetry guess=read
   opt=(tight,modredundant)

Geometry optimization at the 2D-PES

0 1
 C     +0.749648    +0.605736    +0.046252
 C     +1.406998    -0.524708    -0.023289
 H     +1.211073    +1.571343    +0.073097
 H     +2.477749    -0.534086    -0.025527
 H     +0.890986    -1.462479    -0.067968
 O     -0.659067    +0.689578    +0.020365
 O     -1.237207    -0.056471    +1.150896
 H     -0.552025    +0.014258    +1.841745

 2  1  6  7 F
 1  6  7  8 F

