%nproc=1
%mem=1GB
%chk=TMP_CALCS/scangeom_S02_100_180.chk
#p hf 3-21g
   scf=tight NoSymmetry guess=read
   opt=(tight,modredundant)

Geometry optimization at the 2D-PES

0 1
 C     +0.724423    +0.626930    +0.043161
 C     +1.369876    -0.509797    +0.000717
 H     +1.190734    +1.585407    +0.129106
 H     +2.440472    -0.532904    +0.011525
 H     +0.844012    -1.440774    -0.059077
 O     -0.680434    +0.667026    -0.025088
 O     -1.145494    +0.832848    +1.369337
 H     -2.103912    +0.847579    +1.205521

 2  1  6  7 F
 1  6  7  8 F

