%nproc=1
%mem=1GB
%chk=TMP_CALCS/scangeom_S02_050_290.chk
#p hf 3-21g
   scf=tight NoSymmetry guess=read
   opt=(tight,modredundant)

Geometry optimization at the 2D-PES

0 1
 C     +0.741202    +0.586227    +0.064206
 C     +1.421635    -0.528097    -0.029899
 H     +1.196563    +1.553864    +0.092421
 H     +2.491332    -0.502819    -0.049394
 H     +0.959405    -1.493966    -0.061975
 O     -0.660270    +0.698818    +0.039936
 O     -1.278364    -0.233809    +0.982810
 H     -1.111327    -1.096064    +0.564053

 2  1  6  7 F
 1  6  7  8 F

