%nproc=1
%mem=1GB
%chk=TMP_CALCS/scangeom_S02_080_020.chk
#p hf 3-21g
   scf=tight NoSymmetry guess=read
   opt=(tight,modredundant)

Geometry optimization at the 2D-PES

0 1
 C     +0.750639    +0.615445    +0.038283
 C     +1.396931    -0.521824    -0.014893
 H     +1.224723    +1.575324    +0.078501
 H     +2.467829    -0.545087    -0.013417
 H     +0.868583    -1.452431    -0.065810
 O     -0.660648    +0.679364    +0.001749
 O     -1.216824    +0.375935    +1.336953
 H     -0.470138    +0.532216    +1.944714

 2  1  6  7 F
 1  6  7  8 F

