%nproc=1
%mem=1GB
%chk=TMP_CALCS/scangeom_S02_200_030.chk
#p hf 3-21g
   scf=tight NoSymmetry guess=read
   opt=(tight,modredundant)

Geometry optimization at the 2D-PES

0 1
 C     +0.752300    +0.635204    +0.017182
 C     +1.380276    -0.512583    -0.013142
 H     +1.236323    +1.586012    +0.112900
 H     +2.448878    -0.547776    +0.035374
 H     +0.843719    -1.437082    -0.076713
 O     -0.650253    +0.685079    +0.043021
 O     -1.113592    +2.004514    -0.398123
 H     -0.426321    +2.302574    -1.022368

 2  1  6  7 F
 1  6  7  8 F

