%nproc=1
%mem=1GB
%chk=TMP_CALCS/scangeom_S02_130_190.chk
#p hf 3-21g
   scf=tight NoSymmetry guess=read
   opt=(tight,modredundant)

Geometry optimization at the 2D-PES

0 1
 C     +0.724739    +0.632936    +0.052313
 C     +1.366894    -0.506207    +0.005313
 H     +1.184255    +1.594887    +0.128127
 H     +2.437098    -0.528814    -0.006518
 H     +0.839240    -1.436706    -0.041783
 O     -0.673792    +0.669148    -0.027481
 O     -1.106443    +1.509973    +1.104335
 H     -2.062431    +1.339587    +1.064135

 2  1  6  7 F
 1  6  7  8 F

