%nproc=1
%mem=1GB
%chk=TMP_CALCS/scangeom_S02_260_070.chk
#p hf 3-21g
   scf=tight NoSymmetry guess=read
   opt=(tight,modredundant)

Geometry optimization at the 2D-PES

0 1
 C     +0.722691    +0.630285    +0.033065
 C     +1.372639    -0.505065    -0.022184
 H     +1.184103    +1.594155    +0.053168
 H     +2.443201    -0.525153    -0.010713
 H     +0.853025    -1.442455    -0.044613
 O     -0.689500    +0.656259    +0.048329
 O     -1.120822    +0.968092    -1.323635
 H     -0.883561    +0.147410    -1.792490

 2  1  6  7 F
 1  6  7  8 F

