%nproc=1
%mem=1GB
%chk=TMP_CALCS/scangeom_S02_040_020.chk
#p hf 3-21g
   scf=tight NoSymmetry guess=read
   opt=(tight,modredundant)

Geometry optimization at the 2D-PES

0 1
 C     +0.748267    +0.591384    +0.044251
 C     +1.423242    -0.530249    -0.032129
 H     +1.194430    +1.563463    +0.069002
 H     +2.493195    -0.517610    -0.035471
 H     +0.930853    -1.479228    -0.099050
 O     -0.649602    +0.693773    +0.038460
 O     -1.270260    -0.372875    +0.834642
 H     -0.545192    -0.673712    +1.415922

 2  1  6  7 F
 1  6  7  8 F

