%nproc=1
%mem=1GB
%chk=TMP_CALCS/scangeom_S02_210_010.chk
#p hf 3-21g
   scf=tight NoSymmetry guess=read
   opt=(tight,modredundant)

Geometry optimization at the 2D-PES

0 1
 C     +0.764125    +0.633271    +0.014756
 C     +1.387842    -0.516772    -0.007901
 H     +1.263601    +1.577375    +0.120369
 H     +2.454556    -0.559713    +0.068642
 H     +0.845267    -1.436107    -0.089546
 O     -0.635601    +0.690975    +0.037473
 O     -1.143780    +1.903330    -0.624301
 H     -0.371194    +2.300794    -1.065538

 2  1  6  7 F
 1  6  7  8 F

