%nproc=1
%mem=1GB
%chk=TMP_CALCS/scangeom_S02_070_210.chk
#p hf 3-21g
   scf=tight NoSymmetry guess=read
   opt=(tight,modredundant)

Geometry optimization at the 2D-PES

0 1
 C     +0.729978    +0.612408    +0.048362
 C     +1.381480    -0.519783    -0.013781
 H     +1.198697    +1.572226    +0.107596
 H     +2.452125    -0.534497    -0.003639
 H     +0.865089    -1.456835    -0.056529
 O     -0.674860    +0.687628    -0.002462
 O     -1.190767    +0.127880    +1.263125
 H     -2.038418    -0.220624    +0.937789

 2  1  6  7 F
 1  6  7  8 F

