%nproc=1
%mem=1GB
%chk=TMP_CALCS/scangeom_S02_040_110.chk
#p hf 3-21g
   scf=tight NoSymmetry guess=read
   opt=(tight,modredundant)

Geometry optimization at the 2D-PES

0 1
 C     +0.738969    +0.587919    +0.065030
 C     +1.409172    -0.530906    -0.031593
 H     +1.188560    +1.559580    +0.083580
 H     +2.479450    -0.515883    -0.051572
 H     +0.913828    -1.478513    -0.055498
 O     -0.659971    +0.706668    +0.043578
 O     -1.250963    -0.391804    +0.812690
 H     -1.587143    +0.101409    +1.580393

 2  1  6  7 F
 1  6  7  8 F

