%nproc=1
%mem=1GB
%chk=TMP_CALCS/scangeom_S02_050_260.chk
#p hf 3-21g
   scf=tight NoSymmetry guess=read
   opt=(tight,modredundant)

Geometry optimization at the 2D-PES

0 1
 C     +0.737714    +0.590515    +0.065201
 C     +1.409503    -0.528124    -0.028960
 H     +1.192801    +1.558372    +0.092199
 H     +2.479548    -0.514303    -0.048319
 H     +0.926246    -1.483169    -0.044990
 O     -0.663233    +0.701486    +0.036074
 O     -1.253634    -0.245493    +0.985467
 H     -1.516721    -0.965085    +0.386212

 2  1  6  7 F
 1  6  7  8 F

