%nproc=1
%mem=1GB
%chk=TMP_CALCS/scangeom_S02_010_220.chk
#p hf 3-21g
   scf=tight NoSymmetry guess=read
   opt=(tight,modredundant)

Geometry optimization at the 2D-PES

0 1
 C     +0.732560    +0.571047    +0.039303
 C     +1.420024    -0.538459    -0.050282
 H     +1.166005    +1.548056    +0.099264
 H     +2.489532    -0.499461    -0.056790
 H     +0.944376    -1.492784    -0.099963
 O     -0.653753    +0.710865    +0.046485
 O     -1.271502    -0.608341    +0.175955
 H     -2.011924    -0.494857    -0.442877

 2  1  6  7 F
 1  6  7  8 F

