%nproc=1
%mem=1GB
%chk=TMP_CALCS/scangeom_S02_140_160.chk
#p hf 3-21g
   scf=tight NoSymmetry guess=read
   opt=(tight,modredundant)

Geometry optimization at the 2D-PES

0 1
 C     +0.724837    +0.634636    +0.054248
 C     +1.367669    -0.504234    +0.002824
 H     +1.182088    +1.598104    +0.120650
 H     +2.437674    -0.523959    -0.016350
 H     +0.842302    -1.436309    -0.037682
 O     -0.672338    +0.670663    -0.020788
 O     -1.092361    +1.694515    +0.950222
 H     -1.980423    +1.881241    +0.602866

 2  1  6  7 F
 1  6  7  8 F

