%nproc=1
%mem=1GB
%chk=TMP_CALCS/scangeom_S02_180_030.chk
#p hf 3-21g
   scf=tight NoSymmetry guess=read
   opt=(tight,modredundant)

Geometry optimization at the 2D-PES

0 1
 C     +0.757018    +0.632181    +0.033685
 C     +1.380797    -0.517381    -0.007843
 H     +1.256214    +1.576679    +0.113705
 H     +2.450179    -0.553684    +0.007168
 H     +0.841450    -1.440947    -0.057266
 O     -0.644759    +0.691714    +0.023382
 O     -1.115351    +2.076633    +0.075967
 H     -0.413791    +2.586376    -0.369503

 2  1  6  7 F
 1  6  7  8 F

