%nproc=1
%mem=1GB
%chk=TMP_CALCS/scangeom_S02_120_170.chk
#p hf 3-21g
   scf=tight NoSymmetry guess=read
   opt=(tight,modredundant)

Geometry optimization at the 2D-PES

0 1
 C     +0.723928    +0.632089    +0.048118
 C     +1.367756    -0.505934    +0.004397
 H     +1.184417    +1.593308    +0.129976
 H     +2.438164    -0.528690    -0.001162
 H     +0.840209    -1.436311    -0.046526
 O     -0.676831    +0.666109    -0.028206
 O     -1.119428    +1.299633    +1.230172
 H     -2.058330    +1.427479    +1.013211

 2  1  6  7 F
 1  6  7  8 F

