%nproc=1
%mem=1GB
%chk=TMP_CALCS/scangeom_S02_210_100.chk
#p hf 3-21g
   scf=tight NoSymmetry guess=read
   opt=(tight,modredundant)

Geometry optimization at the 2D-PES

0 1
 C     +0.733347    +0.638815    +0.021173
 C     +1.372088    -0.503049    -0.019488
 H     +1.191828    +1.601711    +0.084788
 H     +2.441133    -0.528262    +0.028331
 H     +0.846037    -1.433952    -0.081283
 O     -0.671700    +0.672022    +0.049644
 O     -1.088766    +1.909262    -0.610963
 H     -1.330900    +1.586784    -1.497757

 2  1  6  7 F
 1  6  7  8 F

