%nproc=1
%mem=1GB
%chk=TMP_CALCS/scangeom_S02_000_100.chk
#p hf 3-21g
   scf=tight NoSymmetry guess=read
   opt=(tight,modredundant)

Geometry optimization at the 2D-PES

0 1
 C     +0.738860    +0.571491    +0.029538
 C     +1.430365    -0.535993    -0.052160
 H     +1.167437    +1.550336    +0.093370
 H     +2.499669    -0.494843    -0.053290
 H     +0.957062    -1.489282    -0.134779
 O     -0.651366    +0.707059    +0.048933
 O     -1.284805    -0.602989    -0.037274
 H     -1.505572    -0.757417    +0.897668

 2  1  6  7 F
 1  6  7  8 F

