%nproc=1
%mem=1GB
%chk=TMP_CALCS/scangeom_S02_010_230.chk
#p hf 3-21g
   scf=tight NoSymmetry guess=read
   opt=(tight,modredundant)

Geometry optimization at the 2D-PES

0 1
 C     +0.733685    +0.570510    +0.039777
 C     +1.421919    -0.538385    -0.050834
 H     +1.166283    +1.547853    +0.100051
 H     +2.491368    -0.498878    -0.058536
 H     +0.946664    -1.493021    -0.097498
 O     -0.653601    +0.709914    +0.046904
 O     -1.274761    -0.606743    +0.174705
 H     -1.910993    -0.555962    -0.558105

 2  1  6  7 F
 1  6  7  8 F

