%nproc=1
%mem=1GB
%chk=TMP_CALCS/scangeom_S02_120_100.chk
#p hf 3-21g
   scf=tight NoSymmetry guess=read
   opt=(tight,modredundant)

Geometry optimization at the 2D-PES

0 1
 C     +0.733321    +0.632540    +0.049680
 C     +1.372486    -0.507315    +0.003013
 H     +1.203308    +1.591029    +0.121975
 H     +2.442722    -0.536126    -0.008545
 H     +0.837702    -1.433786    -0.041169
 O     -0.671344    +0.670426    -0.022610
 O     -1.136989    +1.298258    +1.222525
 H     -1.308031    +2.205923    +0.916051

 2  1  6  7 F
 1  6  7  8 F

