%nproc=1
%mem=1GB
%chk=TMP_CALCS/scangeom_S02_230_080.chk
#p hf 3-21g
   scf=tight NoSymmetry guess=read
   opt=(tight,modredundant)

Geometry optimization at the 2D-PES

0 1
 C     +0.732639    +0.638421    +0.024606
 C     +1.374018    -0.501979    -0.021150
 H     +1.191721    +1.602615    +0.073231
 H     +2.443502    -0.529000    +0.021059
 H     +0.845428    -1.432271    -0.073105
 O     -0.674780    +0.663393    +0.051757
 O     -1.107361    +1.604644    -0.988389
 H     -1.034664    +1.065777    -1.798129

 2  1  6  7 F
 1  6  7  8 F

