%nproc=1
%mem=1GB
%chk=TMP_CALCS/scangeom_S02_020_150.chk
#p hf 3-21g
   scf=tight NoSymmetry guess=read
   opt=(tight,modredundant)

Geometry optimization at the 2D-PES

0 1
 C     +0.732525    +0.575433    +0.054259
 C     +1.414815    -0.536576    -0.042676
 H     +1.170550    +1.551698    +0.090020
 H     +2.484523    -0.503369    -0.058743
 H     +0.934753    -1.489979    -0.081455
 O     -0.654964    +0.711653    +0.050934
 O     -1.261686    -0.575502    +0.398227
 H     -2.069719    -0.249828    +0.828393

 2  1  6  7 F
 1  6  7  8 F

