%nproc=1
%mem=1GB
%chk=TMP_CALCS/scangeom_S02_150_000.chk
#p hf 3-21g
   scf=tight NoSymmetry guess=read
   opt=(tight,modredundant)

Geometry optimization at the 2D-PES

0 1
 C     +0.770358    +0.627935    +0.061775
 C     +1.384849    -0.525758    +0.001300
 H     +1.285415    +1.569315    +0.072702
 H     +2.453748    -0.571143    -0.024064
 H     +0.834928    -1.443667    -0.032414
 O     -0.626247    +0.703530    -0.006593
 O     -1.163625    +1.849503    +0.739399
 H     -0.387848    +2.300807    +1.118475

 2  1  6  7 F
 1  6  7  8 F

