%nproc=1
%mem=1GB
%chk=TMP_CALCS/scangeom_S02_130_150.chk
#p hf 3-21g
   scf=tight NoSymmetry guess=read
   opt=(tight,modredundant)

Geometry optimization at the 2D-PES

0 1
 C     +0.728945    +0.634145    +0.052360
 C     +1.368266    -0.506262    +0.004155
 H     +1.191151    +1.594872    +0.127752
 H     +2.438364    -0.532094    -0.010585
 H     +0.836626    -1.434623    -0.038196
 O     -0.671315    +0.670783    -0.024719
 O     -1.112623    +1.508439    +1.101713
 H     -1.926449    +1.878896    +0.720562

 2  1  6  7 F
 1  6  7  8 F

