%nproc=1
%mem=1GB
%chk=TMP_CALCS/scangeom_S02_160_130.chk
#p hf 3-21g
   scf=tight NoSymmetry guess=read
   opt=(tight,modredundant)

Geometry optimization at the 2D-PES

0 1
 C     +0.728077    +0.635907    +0.052563
 C     +1.368425    -0.504536    -0.004068
 H     +1.186253    +1.598817    +0.109999
 H     +2.438331    -0.522457    -0.018735
 H     +0.845413    -1.438046    -0.042854
 O     -0.670255    +0.676432    -0.000856
 O     -1.072090    +1.970238    +0.558673
 H     -1.673931    +2.270826    -0.142494

 2  1  6  7 F
 1  6  7  8 F

