%nproc=1
%mem=1GB
%chk=TMP_CALCS/scangeom_S02_210_140.chk
#p hf 3-21g
   scf=tight NoSymmetry guess=read
   opt=(tight,modredundant)

Geometry optimization at the 2D-PES

0 1
 C     +0.724833    +0.638468    +0.022428
 C     +1.367875    -0.501031    -0.020765
 H     +1.181932    +1.602135    +0.077253
 H     +2.436967    -0.521569    +0.026065
 H     +0.846233    -1.434126    -0.084980
 O     -0.676388    +0.669519    +0.053827
 O     -1.076303    +1.915708    -0.610182
 H     -1.846226    +1.600028    -1.112728

 2  1  6  7 F
 1  6  7  8 F

