%nproc=1
%mem=1GB
%chk=TMP_CALCS/scangeom_S02_200_140.chk
#p hf 3-21g
   scf=tight NoSymmetry guess=read
   opt=(tight,modredundant)

Geometry optimization at the 2D-PES

0 1
 C     +0.720975    +0.637156    +0.025159
 C     +1.366101    -0.501374    -0.019501
 H     +1.177109    +1.601298    +0.079649
 H     +2.435533    -0.517150    +0.016803
 H     +0.848118    -1.436635    -0.080463
 O     -0.677629    +0.669793    +0.052490
 O     -1.064091    +2.016813    -0.384191
 H     -1.830210    +1.792404    -0.938007

 2  1  6  7 F
 1  6  7  8 F

