%nproc=1
%mem=1GB
%chk=TMP_CALCS/scangeom_S02_110_130.chk
#p hf 3-21g
   scf=tight NoSymmetry guess=read
   opt=(tight,modredundant)

Geometry optimization at the 2D-PES

0 1
 C     +0.730463    +0.629465    +0.045456
 C     +1.371016    -0.509635    +0.002868
 H     +1.199737    +1.587573    +0.126830
 H     +2.441449    -0.538103    +0.004031
 H     +0.837316    -1.436346    -0.049754
 O     -0.675393    +0.667749    -0.025730
 O     -1.143215    +1.072809    +1.310647
 H     -1.752227    +1.793121    +1.072680

 2  1  6  7 F
 1  6  7  8 F

