%nproc=1
%mem=1GB
%chk=TMP_CALCS/scangeom_S02_060_120.chk
#p hf 3-21g
   scf=tight NoSymmetry guess=read
   opt=(tight,modredundant)

Geometry optimization at the 2D-PES

0 1
 C     +0.735317    +0.605187    +0.053626
 C     +1.392435    -0.522743    -0.019967
 H     +1.200030    +1.568838    +0.096959
 H     +2.463253    -0.528638    -0.017726
 H     +0.881030    -1.462497    -0.057834
 O     -0.669891    +0.692714    +0.014459
 O     -1.213273    -0.075260    +1.146639
 H     -1.690046    +0.633231    +1.612283

 2  1  6  7 F
 1  6  7  8 F

