%nproc=1
%mem=1GB
%chk=TMP_CALCS/scangeom_S02_130_020.chk
#p hf 3-21g
   scf=tight NoSymmetry guess=read
   opt=(tight,modredundant)

Geometry optimization at the 2D-PES

0 1
 C     +0.764142    +0.626873    +0.059031
 C     +1.386138    -0.522839    +0.002554
 H     +1.262167    +1.577573    +0.076635
 H     +2.455265    -0.566624    -0.034652
 H     +0.836795    -1.441366    -0.028274
 O     -0.636563    +0.691791    -0.012311
 O     -1.179959    +1.516608    +1.084823
 H     -0.431976    +2.064702    +1.385887

 2  1  6  7 F
 1  6  7  8 F

