%nproc=1
%mem=1GB
%chk=TMP_CALCS/scangeom_S02_060_060.chk
#p hf 3-21g
   scf=tight NoSymmetry guess=read
   opt=(tight,modredundant)

Geometry optimization at the 2D-PES

0 1
 C     +0.746165    +0.605342    +0.052639
 C     +1.402140    -0.523868    -0.021654
 H     +1.208631    +1.570818    +0.080574
 H     +2.472981    -0.533334    -0.026691
 H     +0.885384    -1.461071    -0.056791
 O     -0.664415    +0.692986    +0.019910
 O     -1.229776    -0.062811    +1.144418
 H     -0.839686    +0.388412    +1.915331

 2  1  6  7 F
 1  6  7  8 F

