%nproc=1
%mem=1GB
%chk=TMP_CALCS/scangeom_S02_150_200.chk
#p hf 3-21g
   scf=tight NoSymmetry guess=read
   opt=(tight,modredundant)

Geometry optimization at the 2D-PES

0 1
 C     +0.724238    +0.633940    +0.055454
 C     +1.367242    -0.505161    +0.002552
 H     +1.182087    +1.597333    +0.115685
 H     +2.437230    -0.522633    -0.012165
 H     +0.844779    -1.438799    -0.041576
 O     -0.671860    +0.673045    -0.018649
 O     -1.078568    +1.851614    +0.761595
 H     -2.005401    +1.613613    +0.929774

 2  1  6  7 F
 1  6  7  8 F

