%nproc=1
%mem=1GB
%chk=TMP_CALCS/scangeom_S02_170_030.chk
#p hf 3-21g
   scf=tight NoSymmetry guess=read
   opt=(tight,modredundant)

Geometry optimization at the 2D-PES

0 1
 C     +0.767788    +0.629629    +0.049559
 C     +1.383971    -0.523693    +0.000556
 H     +1.285119    +1.568117    +0.095333
 H     +2.453131    -0.567272    -0.000641
 H     +0.836766    -1.442780    -0.042469
 O     -0.629782    +0.702500    -0.004749
 O     -1.138833    +2.043822    +0.296533
 H     -0.441820    +2.655500    -0.002626

 2  1  6  7 F
 1  6  7  8 F

