%nproc=1
%mem=1GB
%chk=TMP_CALCS/scangeom_S02_210_090.chk
#p hf 3-21g
   scf=tight NoSymmetry guess=read
   opt=(tight,modredundant)

Geometry optimization at the 2D-PES

0 1
 C     +0.735642    +0.638705    +0.020496
 C     +1.373351    -0.503732    -0.018814
 H     +1.195701    +1.601003    +0.087997
 H     +2.442363    -0.530205    +0.029395
 H     +0.845929    -1.433873    -0.080338
 O     -0.669706    +0.672711    +0.048815
 O     -1.092496    +1.907806    -0.612125
 H     -1.179403    +1.623250    -1.540370

 2  1  6  7 F
 1  6  7  8 F

