%nproc=1
%mem=1GB
%chk=TMP_CALCS/scangeom_S02_150_080.chk
#p hf 3-21g
   scf=tight NoSymmetry guess=read
   opt=(tight,modredundant)

Geometry optimization at the 2D-PES

0 1
 C     +0.748511    +0.634798    +0.058597
 C     +1.376238    -0.511384    +0.001454
 H     +1.238086    +1.585938    +0.107906
 H     +2.445655    -0.546268    -0.024516
 H     +0.836133    -1.435254    -0.030060
 O     -0.653028    +0.690179    -0.013418
 O     -1.125799    +1.847320    +0.747857
 H     -0.977722    +2.584602    +0.127009

 2  1  6  7 F
 1  6  7  8 F

