%nproc=1
%mem=1GB
%chk=TMP_CALCS/scangeom_S02_120_220.chk
#p hf 3-21g
   scf=tight NoSymmetry guess=read
   opt=(tight,modredundant)

Geometry optimization at the 2D-PES

0 1
 C     +0.726324    +0.631367    +0.048351
 C     +1.370211    -0.506971    +0.004846
 H     +1.187897    +1.591956    +0.126042
 H     +2.440652    -0.529622    +0.000109
 H     +0.844784    -1.438529    -0.052675
 O     -0.677485    +0.666625    -0.024338
 O     -1.126174    +1.300445    +1.228639
 H     -1.902353    +0.747831    +1.422331

 2  1  6  7 F
 1  6  7  8 F

