%nproc=1
%mem=1GB
%chk=TMP_CALCS/scangeom_S02_030_070.chk
#p hf 3-21g
   scf=tight NoSymmetry guess=read
   opt=(tight,modredundant)

Geometry optimization at the 2D-PES

0 1
 C     +0.744487    +0.583114    +0.049957
 C     +1.422446    -0.534140    -0.033804
 H     +1.183328    +1.558748    +0.076371
 H     +2.492317    -0.514439    -0.042107
 H     +0.931253    -1.482727    -0.089798
 O     -0.653582    +0.699567    +0.042642
 O     -1.271952    -0.490692    +0.623692
 H     -1.038459    -0.409981    +1.568036

 2  1  6  7 F
 1  6  7  8 F

