%nproc=1
%mem=1GB
%chk=TMP_CALCS/scangeom_S02_090_090.chk
#p hf 3-21g
   scf=tight NoSymmetry guess=read
   opt=(tight,modredundant)

Geometry optimization at the 2D-PES

0 1
 C     +0.740592    +0.620822    +0.043239
 C     +1.382445    -0.517024    -0.005168
 H     +1.218184    +1.578290    +0.103616
 H     +2.453124    -0.545782    +0.000979
 H     +0.849187    -1.444225    -0.057510
 O     -0.671001    +0.676597    -0.012568
 O     -1.188648    +0.602326    +1.362519
 H     -1.226398    +1.541588    +1.620170

 2  1  6  7 F
 1  6  7  8 F

