%nproc=1
%mem=1GB
%chk=TMP_CALCS/scangeom_S02_170_090.chk
#p hf 3-21g
   scf=tight NoSymmetry guess=read
   opt=(tight,modredundant)

Geometry optimization at the 2D-PES

0 1
 C     +0.743282    +0.636166    +0.041821
 C     +1.374361    -0.509169    -0.005839
 H     +1.219510    +1.590697    +0.113643
 H     +2.444178    -0.537283    -0.004329
 H     +0.842616    -1.437573    -0.048996
 O     -0.660773    +0.685919    +0.006829
 O     -1.089122    +2.047698    +0.312744
 H     -1.117997    +2.455578    -0.572031

 2  1  6  7 F
 1  6  7  8 F

