%nproc=1
%mem=1GB
%chk=TMP_CALCS/scangeom_S02_070_180.chk
#p hf 3-21g
   scf=tight NoSymmetry guess=read
   opt=(tight,modredundant)

Geometry optimization at the 2D-PES

0 1
 C     +0.729206    +0.613980    +0.044810
 C     +1.379051    -0.519320    -0.012614
 H     +1.198465    +1.573528    +0.108848
 H     +2.449654    -0.535906    +0.004099
 H     +0.859332    -1.454220    -0.060224
 O     -0.675520    +0.686247    -0.007769
 O     -1.184238    +0.128634    +1.262676
 H     -2.137582    +0.234842    +1.100729

 2  1  6  7 F
 1  6  7  8 F

