%nproc=1
%mem=1GB
%chk=TMP_CALCS/scangeom_S02_090_170.chk
#p hf 3-21g
   scf=tight NoSymmetry guess=read
   opt=(tight,modredundant)

Geometry optimization at the 2D-PES

0 1
 C     +0.726084    +0.623654    +0.039413
 C     +1.370563    -0.513309    -0.002241
 H     +1.195293    +1.581261    +0.124727
 H     +2.441055    -0.537840    +0.017611
 H     +0.842965    -1.443219    -0.062328
 O     -0.680067    +0.670317    -0.025622
 O     -1.155263    +0.593047    +1.372486
 H     -2.094774    +0.798188    +1.226346

 2  1  6  7 F
 1  6  7  8 F

