%nproc=1
%mem=1GB
%chk=TMP_CALCS/scangeom_S02_280_010.chk
#p hf 3-21g
   scf=tight NoSymmetry guess=read
   opt=(tight,modredundant)

Geometry optimization at the 2D-PES

0 1
 C     +0.738014    +0.624524    +0.036024
 C     +1.393934    -0.510159    -0.004648
 H     +1.204644    +1.586516    +0.079309
 H     +2.464555    -0.524371    +0.012143
 H     +0.877689    -1.449789    -0.027134
 O     -0.672035    +0.664254    +0.029030
 O     -1.179302    +0.491414    -1.350204
 H     -0.386629    +0.233412    -1.857344

 2  1  6  7 F
 1  6  7  8 F

