%nproc=1
%mem=1GB
%chk=TMP_CALCS/scangeom_S02_010_090.chk
#p hf 3-21g
   scf=tight NoSymmetry guess=read
   opt=(tight,modredundant)

Geometry optimization at the 2D-PES

0 1
 C     +0.741148    +0.572766    +0.034297
 C     +1.430339    -0.537191    -0.044493
 H     +1.171057    +1.551390    +0.087650
 H     +2.499675    -0.501118    -0.043387
 H     +0.955080    -1.490335    -0.127351
 O     -0.651393    +0.702891    +0.044203
 O     -1.288594    -0.598941    +0.189783
 H     -1.360190    -0.679431    +1.159125

 2  1  6  7 F
 1  6  7  8 F

