%nproc=1
%mem=1GB
%chk=TMP_CALCS/scangeom_S02_190_030.chk
#p hf 3-21g
   scf=tight NoSymmetry guess=read
   opt=(tight,modredundant)

Geometry optimization at the 2D-PES

0 1
 C     +0.763806    +0.631639    +0.023226
 C     +1.384656    -0.519964    -0.006102
 H     +1.269512    +1.572431    +0.118050
 H     +2.453032    -0.560726    +0.038975
 H     +0.842467    -1.440813    -0.071372
 O     -0.636040    +0.694565    +0.024780
 O     -1.128708    +2.061445    -0.176370
 H     -0.451281    +2.499536    -0.722793

 2  1  6  7 F
 1  6  7  8 F

