%nproc=1
%mem=1GB
%chk=TMP_CALCS/scangeom_S02_080_180.chk
#p hf 3-21g
   scf=tight NoSymmetry guess=read
   opt=(tight,modredundant)

Geometry optimization at the 2D-PES

0 1
 C     +0.727201    +0.618904    +0.044275
 C     +1.376316    -0.515095    -0.008026
 H     +1.196165    +1.577521    +0.118006
 H     +2.446936    -0.534053    +0.008176
 H     +0.855451    -1.449221    -0.062164
 O     -0.678772    +0.676727    -0.013006
 O     -1.171430    +0.349970    +1.342599
 H     -2.126596    +0.422035    +1.173726

 2  1  6  7 F
 1  6  7  8 F

