%nproc=1
%mem=1GB
%chk=TMP_CALCS/scangeom_S02_170_170.chk
#p hf 3-21g
   scf=tight NoSymmetry guess=read
   opt=(tight,modredundant)

Geometry optimization at the 2D-PES

0 1
 C     +0.722717    +0.633862    +0.047142
 C     +1.367532    -0.504680    -0.005000
 H     +1.178372    +1.598054    +0.102614
 H     +2.437522    -0.517384    -0.002817
 H     +0.850499    -1.441139    -0.053188
 O     -0.674211    +0.672819    +0.002895
 O     -1.056903    +2.051776    +0.324551
 H     -2.002336    +2.007327    +0.105861

 2  1  6  7 F
 1  6  7  8 F

