%nproc=1
%mem=1GB
%chk=TMP_CALCS/scangeom_S02_060_140.chk
#p hf 3-21g
   scf=tight NoSymmetry guess=read
   opt=(tight,modredundant)

Geometry optimization at the 2D-PES

0 1
 C     +0.732238    +0.606270    +0.051728
 C     +1.388980    -0.522262    -0.019258
 H     +1.196778    +1.569465    +0.100226
 H     +2.459731    -0.528779    -0.012390
 H     +0.877393    -1.461787    -0.058622
 O     -0.671084    +0.692834    +0.009967
 O     -1.204657    -0.078317    +1.147870
 H     -1.925094    +0.518395    +1.414230

 2  1  6  7 F
 1  6  7  8 F

