%nproc=1
%mem=1GB
%chk=TMP_CALCS/scangeom_S02_040_220.chk
#p hf 3-21g
   scf=tight NoSymmetry guess=read
   opt=(tight,modredundant)

Geometry optimization at the 2D-PES

0 1
 C     +0.735977    +0.585910    +0.065533
 C     +1.409741    -0.530967    -0.034836
 H     +1.183887    +1.557352    +0.091866
 H     +2.479591    -0.512553    -0.058027
 H     +0.922655    -1.482820    -0.043896
 O     -0.660057    +0.707465    +0.043239
 O     -1.251831    -0.393998    +0.807473
 H     -2.012191    -0.604137    +0.239014

 2  1  6  7 F
 1  6  7  8 F

