%nproc=1
%mem=1GB
%chk=TMP_CALCS/scangeom_S02_070_010.chk
#p hf 3-21g
   scf=tight NoSymmetry guess=read
   opt=(tight,modredundant)

Geometry optimization at the 2D-PES

0 1
 C     +0.750305    +0.610743    +0.034262
 C     +1.402134    -0.525837    -0.018245
 H     +1.221461    +1.570790    +0.075493
 H     +2.472765    -0.542274    -0.010866
 H     +0.883693    -1.461924    -0.085371
 O     -0.657280    +0.678644    +0.009786
 O     -1.234284    +0.158046    +1.268868
 H     -0.462114    +0.052139    +1.855959

 2  1  6  7 F
 1  6  7  8 F

