%nproc=1
%mem=1GB
%chk=TMP_CALCS/scangeom_S02_340_010.chk
#p hf 3-21g
   scf=tight NoSymmetry guess=read
   opt=(tight,modredundant)

Geometry optimization at the 2D-PES

0 1
 C     +0.739408    +0.563737    +0.024374
 C     +1.462754    -0.530912    +0.022832
 H     +1.164713    +1.543895    +0.078305
 H     +2.528996    -0.454600    +0.057706
 H     +1.060528    -1.524120    +0.023027
 O     -0.644155    +0.691147    -0.021126
 O     -1.361417    -0.479321    -0.528504
 H     -0.694908    -1.185115    -0.583492

 2  1  6  7 F
 1  6  7  8 F

