%nproc=1
%mem=1GB
%chk=TMP_CALCS/scangeom_S02_120_130.chk
#p hf 3-21g
   scf=tight NoSymmetry guess=read
   opt=(tight,modredundant)

Geometry optimization at the 2D-PES

0 1
 C     +0.727374    +0.632884    +0.047967
 C     +1.369182    -0.505948    +0.003577
 H     +1.189992    +1.593334    +0.128973
 H     +2.439517    -0.531288    -0.003961
 H     +0.838073    -1.434397    -0.043581
 O     -0.674948    +0.666745    -0.026516
 O     -1.124260    +1.298315    +1.226581
 H     -1.727171    +1.969457    +0.864337

 2  1  6  7 F
 1  6  7  8 F

