%nproc=1
%mem=1GB
%chk=TMP_CALCS/scangeom_S02_020_020.chk
#p hf 3-21g
   scf=tight NoSymmetry guess=read
   opt=(tight,modredundant)

Geometry optimization at the 2D-PES

0 1
 C     +0.745559    +0.574649    +0.027317
 C     +1.442583    -0.534728    -0.042553
 H     +1.179296    +1.551296    +0.076348
 H     +2.511261    -0.492549    -0.032381
 H     +0.989520    -1.498339    -0.153233
 O     -0.641878    +0.695166    +0.043646
 O     -1.311957    -0.543587    +0.437418
 H     -0.614523    -1.047205    +0.899821

 2  1  6  7 F
 1  6  7  8 F

