%nproc=1
%mem=1GB
%chk=TMP_CALCS/scangeom_S02_030_280.chk
#p hf 3-21g
   scf=tight NoSymmetry guess=read
   opt=(tight,modredundant)

Geometry optimization at the 2D-PES

0 1
 C     +0.740106    +0.573170    +0.070312
 C     +1.428568    -0.534511    -0.040992
 H     +1.179265    +1.548735    +0.090509
 H     +2.497239    -0.495992    -0.076429
 H     +0.969582    -1.500327    -0.040857
 O     -0.653010    +0.704852    +0.056895
 O     -1.293439    -0.489971    +0.594449
 H     -1.259898    -1.095771    -0.167648

 2  1  6  7 F
 1  6  7  8 F

