%nproc=1
%mem=1GB
%chk=TMP_CALCS/scangeom_S02_050_130.chk
#p hf 3-21g
   scf=tight NoSymmetry guess=read
   opt=(tight,modredundant)

Geometry optimization at the 2D-PES

0 1
 C     +0.738383    +0.595991    +0.061087
 C     +1.401003    -0.527942    -0.025337
 H     +1.196647    +1.563446    +0.087216
 H     +2.471664    -0.524526    -0.035783
 H     +0.896706    -1.471426    -0.052758
 O     -0.664464    +0.701552    +0.029741
 O     -1.236747    -0.248159    +0.991935
 H     -1.842385    +0.341711    +1.472844

 2  1  6  7 F
 1  6  7  8 F

