%nproc=1
%mem=1GB
%chk=TMP_CALCS/scangeom_S02_320_010.chk
#p hf 3-21g
   scf=tight NoSymmetry guess=read
   opt=(tight,modredundant)

Geometry optimization at the 2D-PES

0 1
 C     +0.739292    +0.590262    +0.020921
 C     +1.432666    -0.523964    +0.010882
 H     +1.179801    +1.562852    +0.086894
 H     +2.501510    -0.490312    +0.040451
 H     +0.973278    -1.492954    +0.005871
 O     -0.654700    +0.688282    -0.010260
 O     -1.284572    -0.281967    -0.917306
 H     -0.560976    -0.885196    -1.168424

 2  1  6  7 F
 1  6  7  8 F

