%nproc=1
%mem=1GB
%chk=TMP_CALCS/scangeom_S02_190_140.chk
#p hf 3-21g
   scf=tight NoSymmetry guess=read
   opt=(tight,modredundant)

Geometry optimization at the 2D-PES

0 1
 C     +0.725972    +0.636023    +0.030827
 C     +1.368737    -0.503820    -0.014120
 H     +1.182133    +1.599419    +0.091722
 H     +2.438333    -0.519975    +0.016194
 H     +0.850284    -1.439012    -0.072549
 O     -0.674824    +0.672348    +0.034274
 O     -1.063755    +2.070949    -0.154619
 H     -1.819358    +1.957740    -0.755483

 2  1  6  7 F
 1  6  7  8 F

