%nproc=1
%mem=1GB
%chk=TMP_CALCS/scangeom_S02_080_060.chk
#p hf 3-21g
   scf=tight NoSymmetry guess=read
   opt=(tight,modredundant)

Geometry optimization at the 2D-PES

0 1
 C     +0.743729    +0.616511    +0.043877
 C     +1.390018    -0.518814    -0.011309
 H     +1.217634    +1.576352    +0.092840
 H     +2.460871    -0.542373    -0.006771
 H     +0.861443    -1.449038    -0.059385
 O     -0.669050    +0.680216    -0.002167
 O     -1.203463    +0.366544    +1.332087
 H     -0.808402    +1.062683    +1.888707

 2  1  6  7 F
 1  6  7  8 F

