%nproc=1
%mem=1GB
%chk=TMP_CALCS/scangeom_S02_020_330.chk
#p hf 3-21g
   scf=tight NoSymmetry guess=read
   opt=(tight,modredundant)

Geometry optimization at the 2D-PES

0 1
 C     +0.749171    +0.561415    +0.065352
 C     +1.464097    -0.532238    -0.039844
 H     +1.184929    +1.538215    +0.091892
 H     +2.531054    -0.460156    -0.068029
 H     +1.059416    -1.523274    -0.078929
 O     -0.639646    +0.696313    +0.057118
 O     -1.364881    -0.532676    +0.372207
 H     -0.788826    -1.247709    +0.053498

 2  1  6  7 F
 1  6  7  8 F

