%nproc=1
%mem=1GB
%chk=TMP_CALCS/scangeom_S02_040_270.chk
#p hf 3-21g
   scf=tight NoSymmetry guess=read
   opt=(tight,modredundant)

Geometry optimization at the 2D-PES

0 1
 C     +0.741499    +0.577453    +0.071636
 C     +1.429509    -0.531142    -0.036256
 H     +1.188058    +1.549574    +0.089258
 H     +2.498348    -0.493814    -0.069785
 H     +0.977540    -1.501410    -0.046968
 O     -0.654918    +0.702854    +0.054127
 O     -1.295469    -0.377412    +0.799210
 H     -1.424805    -1.057188    +0.114322

 2  1  6  7 F
 1  6  7  8 F

