%nproc=1
%mem=1GB
%chk=TMP_CALCS/scangeom_S02_170_070.chk
#p hf 3-21g
   scf=tight NoSymmetry guess=read
   opt=(tight,modredundant)

Geometry optimization at the 2D-PES

0 1
 C     +0.750381    +0.634677    +0.042896
 C     +1.377520    -0.512711    -0.004146
 H     +1.240213    +1.583822    +0.112690
 H     +2.447173    -0.545507    -0.003913
 H     +0.840999    -1.438321    -0.046372
 O     -0.652584    +0.690360    +0.004044
 O     -1.105425    +2.046284    +0.307370
 H     -0.833268    +2.552195    -0.480706

 2  1  6  7 F
 1  6  7  8 F

