%nproc=1
%mem=1GB
%chk=TMP_CALCS/scangeom_S02_340_020.chk
#p hf 3-21g
   scf=tight NoSymmetry guess=read
   opt=(tight,modredundant)

Geometry optimization at the 2D-PES

0 1
 C     +0.741165    +0.560729    +0.017054
 C     +1.468693    -0.530684    +0.026159
 H     +1.165402    +1.540925    +0.078917
 H     +2.533860    -0.447643    +0.076508
 H     +1.078134    -1.528219    +0.003115
 O     -0.642110    +0.693045    -0.029271
 O     -1.372328    -0.474223    -0.523812
 H     -0.763634    -1.224478    -0.423321

 2  1  6  7 F
 1  6  7  8 F

