%nproc=1
%mem=1GB
%chk=TMP_CALCS/scangeom_S02_290_000.chk
#p hf 3-21g
   scf=tight NoSymmetry guess=read
   opt=(tight,modredundant)

Geometry optimization at the 2D-PES

0 1
 C     +0.740484    +0.612616    +0.025433
 C     +1.409233    -0.515706    +0.003649
 H     +1.197448    +1.578074    +0.087812
 H     +2.479418    -0.514268    +0.027573
 H     +0.909493    -1.464252    -0.021098
 O     -0.664203    +0.681202    +0.009358
 O     -1.213181    +0.273325    -1.299838
 H     -0.422829    +0.055150    -1.829080

 2  1  6  7 F
 1  6  7  8 F

