%nproc=1
%mem=1GB
%chk=TMP_CALCS/scangeom_S02_040_230.chk
#p hf 3-21g
   scf=tight NoSymmetry guess=read
   opt=(tight,modredundant)

Geometry optimization at the 2D-PES

0 1
 C     +0.737120    +0.584556    +0.067206
 C     +1.412850    -0.530978    -0.035413
 H     +1.184349    +1.556335    +0.091264
 H     +2.482541    -0.510238    -0.061499
 H     +0.930267    -1.485340    -0.042106
 O     -0.659396    +0.706554    +0.045811
 O     -1.258704    -0.391860    +0.805659
 H     -1.917514    -0.710232    +0.164904

 2  1  6  7 F
 1  6  7  8 F

