%nproc=1
%mem=1GB
%chk=TMP_CALCS/scangeom_S02_290_040.chk
#p hf 3-21g
   scf=tight NoSymmetry guess=read
   opt=(tight,modredundant)

Geometry optimization at the 2D-PES

0 1
 C     +0.735613    +0.617145    +0.031943
 C     +1.400031    -0.512988    -0.003319
 H     +1.198626    +1.580510    +0.075464
 H     +2.470438    -0.516744    +0.011770
 H     +0.899089    -1.461830    -0.014683
 O     -0.673061    +0.669287    +0.019633
 O     -1.198828    +0.265134    -1.299218
 H     -0.625813    -0.480859    -1.555798

 2  1  6  7 F
 1  6  7  8 F

