%nproc=1
%mem=1GB
%chk=TMP_CALCS/scangeom_S02_230_030.chk
#p hf 3-21g
   scf=tight NoSymmetry guess=read
   opt=(tight,modredundant)

Geometry optimization at the 2D-PES

0 1
 C     +0.751799    +0.635960    +0.021436
 C     +1.386235    -0.508525    -0.011002
 H     +1.229130    +1.592287    +0.102690
 H     +2.454465    -0.544311    +0.052294
 H     +0.848853    -1.432399    -0.078327
 O     -0.652809    +0.672812    +0.041725
 O     -1.142129    +1.600384    -0.996946
 H     -0.466732    +1.561351    -1.699326

 2  1  6  7 F
 1  6  7  8 F

