%nproc=1
%mem=1GB
%chk=TMP_CALCS/scangeom_S02_080_240.chk
#p hf 3-21g
   scf=tight NoSymmetry guess=read
   opt=(tight,modredundant)

Geometry optimization at the 2D-PES

0 1
 C     +0.730580    +0.614416    +0.044504
 C     +1.384963    -0.517156    -0.009338
 H     +1.198982    +1.573031    +0.115962
 H     +2.455551    -0.530234    +0.005023
 H     +0.876880    -1.458359    -0.076828
 O     -0.679434    +0.675763    -0.004006
 O     -1.190733    +0.357483    +1.339522
 H     -1.727665    -0.428477    +1.140246

 2  1  6  7 F
 1  6  7  8 F

