%nproc=1
%mem=1GB
%chk=TMP_CALCS/scangeom_S02_130_060.chk
#p hf 3-21g
   scf=tight NoSymmetry guess=read
   opt=(tight,modredundant)

Geometry optimization at the 2D-PES

0 1
 C     +0.753248    +0.629042    +0.059956
 C     +1.381343    -0.516553    +0.003695
 H     +1.247937    +1.580697    +0.093964
 H     +2.450728    -0.555354    -0.029562
 H     +0.836656    -1.437711    -0.027272
 O     -0.648417    +0.689701    -0.016670
 O     -1.166937    +1.511944    +1.085959
 H     -0.751617    +2.382792    +0.940816

 2  1  6  7 F
 1  6  7  8 F

