%nproc=1
%mem=1GB
%chk=TMP_CALCS/scangeom_S02_030_310.chk
#p hf 3-21g
   scf=tight NoSymmetry guess=read
   opt=(tight,modredundant)

Geometry optimization at the 2D-PES

0 1
 C     +0.744332    +0.565502    +0.073046
 C     +1.447847    -0.533934    -0.040571
 H     +1.182723    +1.541397    +0.090145
 H     +2.515275    -0.474618    -0.080361
 H     +1.023975    -1.516687    -0.048147
 O     -0.645965    +0.701686    +0.061285
 O     -1.332585    -0.472375    +0.588665
 H     -0.925334    -1.211280    +0.102627

 2  1  6  7 F
 1  6  7  8 F

