%nproc=1
%mem=1GB
%chk=TMP_CALCS/scangeom_S02_140_170.chk
#p hf 3-21g
   scf=tight NoSymmetry guess=read
   opt=(tight,modredundant)

Geometry optimization at the 2D-PES

0 1
 C     +0.724265    +0.634359    +0.054371
 C     +1.367620    -0.504258    +0.003134
 H     +1.181594    +1.597867    +0.120161
 H     +2.437646    -0.523471    -0.015566
 H     +0.842942    -1.436701    -0.038557
 O     -0.672819    +0.670399    -0.021073
 O     -1.091890    +1.694789    +0.950524
 H     -2.030418    +1.761549    +0.707810

 2  1  6  7 F
 1  6  7  8 F

