%nproc=1
%mem=1GB
%chk=TMP_CALCS/scangeom_S02_050_000.chk
#p hf 3-21g
   scf=tight NoSymmetry guess=read
   opt=(tight,modredundant)

Geometry optimization at the 2D-PES

0 1
 C     +0.750313    +0.604278    +0.035915
 C     +1.412558    -0.526448    -0.024884
 H     +1.213606    +1.568115    +0.070443
 H     +2.482997    -0.530750    -0.021500
 H     +0.907565    -1.469820    -0.096482
 O     -0.653956    +0.681459    +0.022421
 O     -1.257924    -0.233053    +1.012683
 H     -0.490598    -0.666759    +1.431568

 2  1  6  7 F
 1  6  7  8 F

