%nproc=1
%mem=1GB
%chk=TMP_CALCS/scangeom_S02_220_130.chk
#p hf 3-21g
   scf=tight NoSymmetry guess=read
   opt=(tight,modredundant)

Geometry optimization at the 2D-PES

0 1
 C     +0.722238    +0.638998    +0.020078
 C     +1.365909    -0.499840    -0.024452
 H     +1.180508    +1.602926    +0.065685
 H     +2.435111    -0.521911    +0.021354
 H     +0.842572    -1.432129    -0.086120
 O     -0.678785    +0.668383    +0.058599
 O     -1.081080    +1.782143    -0.814338
 H     -1.742942    +1.327927    -1.362332

 2  1  6  7 F
 1  6  7  8 F

