%nproc=1
%mem=1GB
%chk=TMP_CALCS/scangeom_S02_300_060.chk
#p hf 3-21g
   scf=tight NoSymmetry           
   opt=(tight,modredundant)

Geometry optimization at the 2D-PES

0 1
 C     +0.693780    +0.562030    +0.014170
 C     +1.403410    -0.551730    +0.009060
 H     +1.117480    +1.554370    +0.039810
 H     +2.476430    -0.478480    +0.037660
 H     +0.942140    -1.521840    -0.035780
 O     -0.653510    +0.691250    -0.021240
 O     -1.171339    +0.109008    -1.189813
 H     -0.882277    -0.800115    -1.085887

 2  1  6  7 F
 1  6  7  8 F

