%nproc=1
%mem=1GB
%chk=TMP_CALCS/scangeom_S02_080_220.chk
#p hf 3-21g
   scf=tight NoSymmetry guess=read
   opt=(tight,modredundant)

Geometry optimization at the 2D-PES

0 1
 C     +0.729467    +0.615449    +0.046523
 C     +1.382241    -0.516561    -0.009328
 H     +1.198331    +1.574170    +0.115350
 H     +2.452910    -0.531215    +0.001799
 H     +0.869597    -1.455494    -0.066958
 O     -0.678769    +0.677248    -0.004496
 O     -1.185621    +0.353740    +1.342374
 H     -1.950965    -0.194185    +1.098930

 2  1  6  7 F
 1  6  7  8 F

