%nproc=1
%mem=1GB
%chk=TMP_CALCS/scangeom_S02_070_090.chk
#p hf 3-21g
   scf=tight NoSymmetry guess=read
   opt=(tight,modredundant)

Geometry optimization at the 2D-PES

0 1
 C     +0.743449    +0.611441    +0.048129
 C     +1.392543    -0.521797    -0.015364
 H     +1.214230    +1.572741    +0.090034
 H     +2.463414    -0.540342    -0.012249
 H     +0.868642    -1.454845    -0.057722
 O     -0.668590    +0.687911    +0.005704
 O     -1.215481    +0.142408    +1.255642
 H     -1.256022    +0.934027    +1.822373

 2  1  6  7 F
 1  6  7  8 F

