%nproc=1
%mem=1GB
%chk=TMP_CALCS/scangeom_S02_140_150.chk
#p hf 3-21g
   scf=tight NoSymmetry guess=read
   opt=(tight,modredundant)

Geometry optimization at the 2D-PES

0 1
 C     +0.725915    +0.635026    +0.054155
 C     +1.367886    -0.504268    +0.002463
 H     +1.183593    +1.598210    +0.120950
 H     +2.437864    -0.524854    -0.017395
 H     +0.841528    -1.435814    -0.036743
 O     -0.671631    +0.671233    -0.020097
 O     -1.093715    +1.694232    +0.949760
 H     -1.905939    +1.998643    +0.511790

 2  1  6  7 F
 1  6  7  8 F

