%nproc=1
%mem=1GB
%chk=TMP_CALCS/scangeom_S02_070_060.chk
#p hf 3-21g
   scf=tight NoSymmetry guess=read
   opt=(tight,modredundant)

Geometry optimization at the 2D-PES

0 1
 C     +0.748142    +0.611022    +0.044373
 C     +1.397477    -0.523378    -0.016965
 H     +1.217972    +1.572905    +0.080515
 H     +2.468355    -0.542456    -0.014361
 H     +0.872777    -1.456149    -0.062189
 O     -0.663571    +0.687417    +0.007315
 O     -1.224102    +0.149516    +1.258495
 H     -0.838829    +0.727933    +1.942704

 2  1  6  7 F
 1  6  7  8 F

