%nproc=1
%mem=1GB
%chk=TMP_CALCS/scangeom_S02_180_150.chk
#p hf 3-21g
   scf=tight NoSymmetry guess=read
   opt=(tight,modredundant)

Geometry optimization at the 2D-PES

0 1
 C     +0.719827    +0.634165    +0.040682
 C     +1.366867    -0.503211    -0.011692
 H     +1.174351    +1.598909    +0.094779
 H     +2.436817    -0.513631    -0.001368
 H     +0.852472    -1.440961    -0.063388
 O     -0.677827    +0.669769    +0.027648
 O     -1.054259    +2.085426    +0.097405
 H     -1.891852    +2.049989    -0.393323

 2  1  6  7 F
 1  6  7  8 F

