%nproc=1
%mem=1GB
%chk=TMP_CALCS/scangeom_S02_020_120.chk
#p hf 3-21g
   scf=tight NoSymmetry guess=read
   opt=(tight,modredundant)

Geometry optimization at the 2D-PES

0 1
 C     +0.736279    +0.574078    +0.056985
 C     +1.419944    -0.536645    -0.042265
 H     +1.172336    +1.551541    +0.086388
 H     +2.489525    -0.502263    -0.063185
 H     +0.939659    -1.489924    -0.080750
 O     -0.654454    +0.709558    +0.054541
 O     -1.270953    -0.570855    +0.397955
 H     -1.755225    -0.308892    +1.198892

 2  1  6  7 F
 1  6  7  8 F

