%nproc=1
%mem=1GB
%chk=TMP_CALCS/scangeom_S02_040_260.chk
#p hf 3-21g
   scf=tight NoSymmetry guess=read
   opt=(tight,modredundant)

Geometry optimization at the 2D-PES

0 1
 C     +0.740366    +0.579637    +0.071197
 C     +1.424372    -0.531070    -0.036255
 H     +1.186908    +1.551772    +0.089452
 H     +2.493468    -0.499289    -0.068761
 H     +0.962766    -1.496522    -0.043135
 O     -0.656445    +0.703891    +0.052563
 O     -1.284480    -0.382120    +0.800492
 H     -1.555846    -0.986928    +0.087474

 2  1  6  7 F
 1  6  7  8 F

