%nproc=1
%mem=1GB
%chk=TMP_CALCS/scangeom_S02_030_040.chk
#p hf 3-21g
   scf=tight NoSymmetry guess=read
   opt=(tight,modredundant)

Geometry optimization at the 2D-PES

0 1
 C     +0.745758    +0.581399    +0.038322
 C     +1.431216    -0.534587    -0.035210
 H     +1.185084    +1.556192    +0.072509
 H     +2.500631    -0.508205    -0.032353
 H     +0.956087    -1.490253    -0.122995
 O     -0.646651    +0.693082    +0.041514
 O     -1.290911    -0.478720    +0.640701
 H     -0.715614    -0.691942    +1.401043

 2  1  6  7 F
 1  6  7  8 F

