%nproc=1
%mem=1GB
%chk=TMP_CALCS/scangeom_S02_110_170.chk
#p hf 3-21g
   scf=tight NoSymmetry guess=read
   opt=(tight,modredundant)

Geometry optimization at the 2D-PES

0 1
 C     +0.724975    +0.629602    +0.044242
 C     +1.367554    -0.508837    +0.003704
 H     +1.188924    +1.588910    +0.132494
 H     +2.438033    -0.534448    +0.008586
 H     +0.837401    -1.437452    -0.051839
 O     -0.678182    +0.665536    -0.030251
 O     -1.131689    +1.072700    +1.315234
 H     -2.071537    +1.228740    +1.121086

 2  1  6  7 F
 1  6  7  8 F

