%nproc=1
%mem=1GB
%chk=TMP_CALCS/scangeom_S02_310_040.chk
#p hf 3-21g
   scf=tight NoSymmetry guess=read
   opt=(tight,modredundant)

Geometry optimization at the 2D-PES

0 1
 C     +0.737310    +0.592452    +0.010245
 C     +1.425253    -0.522682    +0.011935
 H     +1.189826    +1.558978    +0.083910
 H     +2.493524    -0.491157    +0.064781
 H     +0.976904    -1.495928    -0.031498
 O     -0.663512    +0.697728    -0.016308
 O     -1.267744    -0.117239    -1.074744
 H     -0.750210    -0.940239    -1.061469

 2  1  6  7 F
 1  6  7  8 F

