%nproc=1
%mem=1GB
%chk=TMP_CALCS/scangeom_S02_000_000.chk
#p hf 3-21g
   scf=tight NoSymmetry guess=read
   opt=(tight,modredundant)

Geometry optimization at the 2D-PES

0 1
 C     +0.754178    +0.554513    +0.015882
 C     +1.488307    -0.529770    -0.061782
 H     +1.176206    +1.535145    +0.086123
 H     +2.553739    -0.436173    -0.058055
 H     +1.109957    -1.527338    -0.154763
 O     -0.625743    +0.693887    +0.053152
 O     -1.393894    -0.547563    -0.001632
 H     -0.735657    -1.259741    -0.056383

 2  1  6  7 F
 1  6  7  8 F

