%nproc=1
%mem=1GB
%chk=TMP_CALCS/scangeom_S02_170_060.chk
#p hf 3-21g
   scf=tight NoSymmetry guess=read
   opt=(tight,modredundant)

Geometry optimization at the 2D-PES

0 1
 C     +0.754827    +0.633526    +0.044163
 C     +1.379313    -0.515292    -0.002955
 H     +1.252559    +1.579565    +0.110189
 H     +2.448850    -0.550895    -0.003395
 H     +0.839962    -1.439212    -0.044823
 O     -0.646917    +0.693351    +0.001767
 O     -1.115073    +2.045497    +0.304130
 H     -0.708481    +2.592291    -0.393471

 2  1  6  7 F
 1  6  7  8 F

