%nproc=1
%mem=1GB
%chk=TMP_CALCS/scangeom_S02_120_000.chk
#p hf 3-21g
   scf=tight NoSymmetry guess=read
   opt=(tight,modredundant)

Geometry optimization at the 2D-PES

0 1
 C     +0.760704    +0.625492    +0.050532
 C     +1.388149    -0.521664    -0.001200
 H     +1.251847    +1.579220    +0.074276
 H     +2.457781    -0.561810    -0.033054
 H     +0.842232    -1.442252    -0.034830
 O     -0.643016    +0.683487    -0.010480
 O     -1.186309    +1.311079    +1.212971
 H     -0.404580    +1.525334    +1.755037

 2  1  6  7 F
 1  6  7  8 F

