%nproc=1
%mem=1GB
%chk=TMP_CALCS/scangeom_S02_050_240.chk
#p hf 3-21g
   scf=tight NoSymmetry guess=read
   opt=(tight,modredundant)

Geometry optimization at the 2D-PES

0 1
 C     +0.735495    +0.593455    +0.063333
 C     +1.402685    -0.527957    -0.027927
 H     +1.191347    +1.560926    +0.093214
 H     +2.472930    -0.519872    -0.043707
 H     +0.908757    -1.477101    -0.042626
 O     -0.664478    +0.702881    +0.031311
 O     -1.239180    -0.250814    +0.988150
 H     -1.776511    -0.790749    +0.383875

 2  1  6  7 F
 1  6  7  8 F

