%nproc=1
%mem=1GB
%chk=TMP_CALCS/scangeom_S02_150_110.chk
#p hf 3-21g
   scf=tight NoSymmetry guess=read
   opt=(tight,modredundant)

Geometry optimization at the 2D-PES

0 1
 C     +0.739641    +0.636738    +0.055179
 C     +1.371911    -0.507381    +0.000168
 H     +1.212744    +1.593442    +0.116361
 H     +2.441601    -0.536666    -0.020709
 H     +0.837416    -1.434463    -0.034416
 O     -0.662178    +0.683118    -0.011910
 O     -1.103809    +1.848834    +0.754634
 H     -1.419008    +2.432505    +0.042029

 2  1  6  7 F
 1  6  7  8 F

