%nproc=1
%mem=1GB
%chk=TMP_CALCS/scangeom_S02_030_290.chk
#p hf 3-21g
   scf=tight NoSymmetry guess=read
   opt=(tight,modredundant)

Geometry optimization at the 2D-PES

0 1
 C     +0.741188    +0.571108    +0.072211
 C     +1.433565    -0.534412    -0.040948
 H     +1.180351    +1.546685    +0.089998
 H     +2.501869    -0.490302    -0.079140
 H     +0.984750    -1.505299    -0.040094
 O     -0.651193    +0.704094    +0.059003
 O     -1.304431    -0.485413    +0.591922
 H     -1.133265    -1.146913    -0.102705

 2  1  6  7 F
 1  6  7  8 F

