%nproc=1
%mem=1GB
%chk=TMP_CALCS/scangeom_S02_160_110.chk
#p hf 3-21g
   scf=tight NoSymmetry guess=read
   opt=(tight,modredundant)

Geometry optimization at the 2D-PES

0 1
 C     +0.733237    +0.636828    +0.051436
 C     +1.369947    -0.505384    -0.004671
 H     +1.195866    +1.597550    +0.111927
 H     +2.439804    -0.527259    -0.019976
 H     +0.843171    -1.436843    -0.041737
 O     -0.667382    +0.679632    +0.001201
 O     -1.079484    +1.969475    +0.556027
 H     -1.401290    +2.409389    -0.249232

 2  1  6  7 F
 1  6  7  8 F

