%nproc=1
%mem=1GB
%chk=TMP_CALCS/scangeom_S02_060_020.chk
#p hf 3-21g
   scf=tight NoSymmetry guess=read
   opt=(tight,modredundant)

Geometry optimization at the 2D-PES

0 1
 C     +0.750427    +0.605704    +0.043711
 C     +1.408721    -0.525056    -0.023955
 H     +1.212037    +1.571035    +0.071196
 H     +2.479415    -0.533653    -0.025113
 H     +0.894269    -1.463689    -0.073789
 O     -0.657034    +0.687779    +0.020899
 O     -1.240495    -0.054127    +1.153763
 H     -0.500940    -0.126286    +1.786215

 2  1  6  7 F
 1  6  7  8 F

