%nproc=1
%mem=1GB
%chk=TMP_CALCS/scangeom_S02_180_000.chk
#p hf 3-21g
   scf=tight NoSymmetry guess=read
   opt=(tight,modredundant)

Geometry optimization at the 2D-PES

0 1
 C     +0.769052    +0.628579    +0.038263
 C     +1.384863    -0.525290    -0.004494
 H     +1.287267    +1.565531    +0.101756
 H     +2.453811    -0.569421    +0.013711
 H     +0.838058    -1.444045    -0.058216
 O     -0.629179    +0.700004    +0.017073
 O     -1.135488    +2.074964    +0.072010
 H     -0.344832    +2.642637    +0.112211

 2  1  6  7 F
 1  6  7  8 F

