%nproc=1
%mem=1GB
%chk=TMP_CALCS/scangeom_S02_120_190.chk
#p hf 3-21g
   scf=tight NoSymmetry guess=read
   opt=(tight,modredundant)

Geometry optimization at the 2D-PES

0 1
 C     +0.724242    +0.631712    +0.048598
 C     +1.368281    -0.506283    +0.004681
 H     +1.185618    +1.592595    +0.128332
 H     +2.438705    -0.528698    -0.000958
 H     +0.841841    -1.437288    -0.048227
 O     -0.677131    +0.666731    -0.026837
 O     -1.121409    +1.300430    +1.230847
 H     -2.075510    +1.128813    +1.159071

 2  1  6  7 F
 1  6  7  8 F

