%nproc=1
%mem=1GB
%chk=TMP_CALCS/scangeom_S02_240_090.chk
#p hf 3-21g
   scf=tight NoSymmetry guess=read
   opt=(tight,modredundant)

Geometry optimization at the 2D-PES

0 1
 C     +0.723796    +0.636155    +0.025108
 C     +1.369282    -0.501424    -0.025282
 H     +1.182337    +1.600592    +0.056880
 H     +2.439236    -0.524938    +0.007473
 H     +0.844886    -1.434582    -0.069740
 O     -0.684417    +0.661283    +0.053379
 O     -1.101847    +1.415142    -1.137962
 H     -1.178286    +0.697020    -1.790849

 2  1  6  7 F
 1  6  7  8 F

