%nproc=1
%mem=1GB
%chk=TMP_CALCS/scangeom_S02_000_210.chk
#p hf 3-21g
   scf=tight NoSymmetry guess=read
   opt=(tight,modredundant)

Geometry optimization at the 2D-PES

0 1
 C     +0.734624    +0.571769    +0.026829
 C     +1.424824    -0.536338    -0.057153
 H     +1.165436    +1.548812    +0.104098
 H     +2.494251    -0.494794    -0.057351
 H     +0.951262    -1.490734    -0.121595
 O     -0.652211    +0.710405    +0.046270
 O     -1.275927    -0.607804    -0.043726
 H     -2.097923    -0.364353    -0.501170

 2  1  6  7 F
 1  6  7  8 F

