%nproc=1
%mem=1GB
%chk=TMP_CALCS/scangeom_S02_320_040.chk
#p hf 3-21g
   scf=tight NoSymmetry guess=read
   opt=(tight,modredundant)

Geometry optimization at the 2D-PES

0 1
 C     +0.741024    +0.581278    +0.011264
 C     +1.444337    -0.525288    +0.018489
 H     +1.182270    +1.552894    +0.086953
 H     +2.511499    -0.474480    +0.074142
 H     +1.016806    -1.508241    -0.013761
 O     -0.652761    +0.696309    -0.026001
 O     -1.308372    -0.267158    -0.915765
 H     -0.823317    -1.099044    -0.784206

 2  1  6  7 F
 1  6  7  8 F

