%nproc=1
%mem=1GB
%chk=TMP_CALCS/scangeom_S02_070_040.chk
#p hf 3-21g
   scf=tight NoSymmetry guess=read
   opt=(tight,modredundant)

Geometry optimization at the 2D-PES

0 1
 C     +0.750550    +0.610870    +0.040492
 C     +1.400631    -0.524509    -0.018372
 H     +1.220536    +1.572389    +0.075402
 H     +2.471467    -0.542798    -0.015426
 H     +0.877272    -1.458109    -0.068986
 O     -0.659523    +0.685189    +0.008928
 O     -1.230241    +0.153955    +1.262887
 H     -0.627611    +0.488958    +1.952922

 2  1  6  7 F
 1  6  7  8 F

