%nproc=1
%mem=1GB
%chk=TMP_CALCS/scangeom_S02_060_130.chk
#p hf 3-21g
   scf=tight NoSymmetry guess=read
   opt=(tight,modredundant)

Geometry optimization at the 2D-PES

0 1
 C     +0.733598    +0.605693    +0.052583
 C     +1.390616    -0.522491    -0.019582
 H     +1.198234    +1.569104    +0.098824
 H     +2.461403    -0.528570    -0.014774
 H     +0.879270    -1.462206    -0.058510
 O     -0.670575    +0.692627    +0.012145
 O     -1.208790    -0.076960    +1.147457
 H     -1.815389    +0.587738    +1.516539

 2  1  6  7 F
 1  6  7  8 F

