%nproc=1
%mem=1GB
%chk=TMP_CALCS/scangeom_S02_060_280.chk
#p hf 3-21g
   scf=tight NoSymmetry guess=read
   opt=(tight,modredundant)

Geometry optimization at the 2D-PES

0 1
 C     +0.739888    +0.596368    +0.051840
 C     +1.413430    -0.523981    -0.023264
 H     +1.201949    +1.559782    +0.101260
 H     +2.483650    -0.510978    -0.022796
 H     +0.940369    -1.483951    -0.090725
 O     -0.666784    +0.687462    +0.023749
 O     -1.256864    -0.058748    +1.140153
 H     -1.231361    -0.977376    +0.821106

 2  1  6  7 F
 1  6  7  8 F

