%nproc=1
%mem=1GB
%chk=TMP_CALCS/scangeom_S02_030_180.chk
#p hf 3-21g
   scf=tight NoSymmetry guess=read
   opt=(tight,modredundant)

Geometry optimization at the 2D-PES

0 1
 C     +0.731887    +0.581048    +0.058487
 C     +1.407663    -0.535174    -0.036178
 H     +1.176221    +1.554495    +0.089441
 H     +2.477706    -0.511384    -0.049539
 H     +0.920190    -1.485737    -0.066153
 O     -0.658313    +0.710611    +0.043042
 O     -1.249555    -0.506111    +0.611643
 H     -2.188119    -0.266611    +0.532463

 2  1  6  7 F
 1  6  7  8 F

