%nproc=1
%mem=1GB
%chk=TMP_CALCS/scangeom_S02_270_040.chk
#p hf 3-21g
   scf=tight NoSymmetry guess=read
   opt=(tight,modredundant)

Geometry optimization at the 2D-PES

0 1
 C     +0.735285    +0.629367    +0.036372
 C     +1.387633    -0.506664    -0.010671
 H     +1.201482    +1.591826    +0.071557
 H     +2.458278    -0.525181    +0.005124
 H     +0.866431    -1.443298    -0.033324
 O     -0.675590    +0.656982    +0.036558
 O     -1.159703    +0.724822    -1.359094
 H     -0.558834    +0.122217    -1.836806

 2  1  6  7 F
 1  6  7  8 F

