%nproc=1
%mem=1GB
%chk=TMP_CALCS/scangeom_S02_110_180.chk
#p hf 3-21g
   scf=tight NoSymmetry guess=read
   opt=(tight,modredundant)

Geometry optimization at the 2D-PES

0 1
 C     +0.724486    +0.629439    +0.044528
 C     +1.367332    -0.508916    +0.003814
 H     +1.188378    +1.588759    +0.132427
 H     +2.437824    -0.534098    +0.008646
 H     +0.837923    -1.437951    -0.052248
 O     -0.678381    +0.665795    -0.030133
 O     -1.131332    +1.072961    +1.316325
 H     -2.091235    +1.067947    +1.161636

 2  1  6  7 F
 1  6  7  8 F

