%nproc=1
%mem=1GB
%chk=TMP_CALCS/scangeom_S02_220_090.chk
#p hf 3-21g
   scf=tight NoSymmetry guess=read
   opt=(tight,modredundant)

Geometry optimization at the 2D-PES

0 1
 C     +0.729274    +0.639242    +0.020332
 C     +1.369825    -0.501512    -0.023205
 H     +1.187346    +1.602906    +0.070572
 H     +2.439029    -0.526867    +0.023003
 H     +0.843701    -1.432674    -0.081237
 O     -0.675869    +0.669173    +0.053736
 O     -1.091884    +1.776515    -0.812466
 H     -1.175470    +1.322608    -1.669680

 2  1  6  7 F
 1  6  7  8 F

